MODEL 1
REMARK VINA RESULT:    -8.445      0.000      0.000
REMARK INTER + INTRA:         -11.963
REMARK INTER:                 -10.913
REMARK INTRA:                  -1.050
REMARK UNBOUND:                -1.050
REMARK  Name = 
REMARK  5 active torsions:
REMARK  status: ('A' for Active; 'I' for Inactive)
REMARK    1  A    between atoms: C_2  and  C_19
REMARK    2  A    between atoms: N_3  and  C_4
REMARK    3  A    between atoms: C_4  and  C_5
REMARK    4  A    between atoms: C_8  and  C_9
REMARK    5  A    between atoms: C_9  and  N_10
REMARK                            x       y       z     vdW  Elec       q    Type
REMARK                         _______ _______ _______ _____ _____    ______ ____
ROOT
ATOM      1  C   UNL     1      46.671   7.684  13.293  0.00  0.00    +0.000 C 
ENDROOT
BRANCH   1   2
ATOM      2  C   UNL     1      46.043   6.700  12.341  0.00  0.00    +0.000 A 
ATOM      3  C   UNL     1      46.449   6.660  11.001  0.00  0.00    +0.000 A 
ATOM      4  C   UNL     1      45.867   5.759  10.107  0.00  0.00    +0.000 A 
ATOM      5  C   UNL     1      44.850   4.891  10.528  0.00  0.00    +0.000 A 
ATOM      6  C   UNL     1      44.442   4.931  11.870  0.00  0.00    +0.000 A 
ATOM      7  C   UNL     1      45.024   5.834  12.765  0.00  0.00    +0.000 A 
BRANCH   5   8
ATOM      8  C   UNL     1      44.200   3.939   9.551  0.00  0.00    +0.000 C 
BRANCH   8   9
ATOM      9  N   UNL     1      44.755   4.140   8.217  0.00  0.00    +0.000 N 
ATOM     10  C   UNL     1      45.595   3.087   7.800  0.00  0.00    +0.000 A 
ATOM     11  C   UNL     1      46.197   3.176   6.551  0.00  0.00    +0.000 A 
ATOM     12  C   UNL     1      47.026   2.148   6.109  0.00  0.00    +0.000 A 
ATOM     13  C   UNL     1      47.217   1.065   6.941  0.00  0.00    +0.000 A 
ATOM     14  N   UNL     1      46.621   0.975   8.142  0.00  0.00    +0.000 NA
ATOM     15  N   UNL     1      45.798   1.990   8.562  0.00  0.00    +0.000 NA
ATOM     16  H   UNL     1      45.257   5.020   8.147  0.00  0.00    +0.000 HD
ENDBRANCH   8   9
ENDBRANCH   5   8
ENDBRANCH   1   2
BRANCH   1  19
ATOM     17  O   UNL     1      49.359   6.913  13.634  0.00  0.00    +0.000 OA
ATOM     18  C   UNL     1      48.564   6.726  14.553  0.00  0.00    +0.000 C 
ATOM     19  N   UNL     1      47.229   7.017  14.442  0.00  0.00    +0.000 N 
ATOM     20  H   UNL     1      46.654   7.018  15.278  0.00  0.00    +0.000 HD
BRANCH  18  21
ATOM     21  C   UNL     1      48.991   6.115  15.817  0.00  0.00    +0.000 A 
ATOM     22  C   UNL     1      50.035   6.679  16.539  0.00  0.00    +0.000 A 
ATOM     23  S   UNL     1      50.420   5.826  17.965  0.00  0.00    +0.000 S 
ATOM     24  C   UNL     1      49.170   4.702  17.697  0.00  0.00    +0.000 A 
ATOM     25  N   UNL     1      48.930   3.697  18.581  0.00  0.00    +0.000 NA
ATOM     26  C   UNL     1      47.918   2.955  18.283  0.00  0.00    +0.000 A 
ATOM     27  N   UNL     1      47.131   3.117  17.174  0.00  0.00    +0.000 N 
ATOM     28  C   UNL     1      47.392   4.059  16.207  0.00  0.00    +0.000 A 
ATOM     29  O   UNL     1      46.761   4.078  15.155  0.00  0.00    +0.000 OA
ATOM     30  C   UNL     1      48.486   4.957  16.522  0.00  0.00    +0.000 A 
ATOM     31  H   UNL     1      46.370   2.482  16.980  0.00  0.00    +0.000 HD
ENDBRANCH  18  21
ENDBRANCH   1  19
TORSDOF 5
ENDMDL
MODEL 2
REMARK VINA RESULT:    -7.843      2.622      4.447
REMARK INTER + INTRA:         -11.186
REMARK INTER:                 -10.247
REMARK INTRA:                  -0.939
REMARK UNBOUND:                -1.050
REMARK  Name = 
REMARK  5 active torsions:
REMARK  status: ('A' for Active; 'I' for Inactive)
REMARK    1  A    between atoms: C_2  and  C_19
REMARK    2  A    between atoms: N_3  and  C_4
REMARK    3  A    between atoms: C_4  and  C_5
REMARK    4  A    between atoms: C_8  and  C_9
REMARK    5  A    between atoms: C_9  and  N_10
REMARK                            x       y       z     vdW  Elec       q    Type
REMARK                         _______ _______ _______ _____ _____    ______ ____
ROOT
ATOM      1  C   UNL     1      47.289   5.367  14.365  0.00  0.00    +0.000 C 
ENDROOT
BRANCH   1   2
ATOM      2  C   UNL     1      46.478   4.999  13.150  0.00  0.00    +0.000 A 
ATOM      3  C   UNL     1      46.269   5.938  12.133  0.00  0.00    +0.000 A 
ATOM      4  C   UNL     1      45.511   5.611  11.006  0.00  0.00    +0.000 A 
ATOM      5  C   UNL     1      44.926   4.344  10.883  0.00  0.00    +0.000 A 
ATOM      6  C   UNL     1      45.134   3.403  11.902  0.00  0.00    +0.000 A 
ATOM      7  C   UNL     1      45.893   3.730  13.030  0.00  0.00    +0.000 A 
BRANCH   5   8
ATOM      8  C   UNL     1      44.079   4.003   9.678  0.00  0.00    +0.000 C 
BRANCH   8   9
ATOM      9  N   UNL     1      44.813   4.309   8.454  0.00  0.00    +0.000 N 
ATOM     10  C   UNL     1      45.597   3.232   7.993  0.00  0.00    +0.000 A 
ATOM     11  C   UNL     1      46.355   3.410   6.842  0.00  0.00    +0.000 A 
ATOM     12  C   UNL     1      47.135   2.361   6.360  0.00  0.00    +0.000 A 
ATOM     13  C   UNL     1      47.120   1.169   7.052  0.00  0.00    +0.000 A 
ATOM     14  N   UNL     1      46.374   0.995   8.156  0.00  0.00    +0.000 NA
ATOM     15  N   UNL     1      45.602   2.033   8.616  0.00  0.00    +0.000 NA
ATOM     16  H   UNL     1      45.398   5.131   8.561  0.00  0.00    +0.000 HD
ENDBRANCH   8   9
ENDBRANCH   5   8
ENDBRANCH   1   2
BRANCH   1  19
ATOM     17  O   UNL     1      49.696   6.541  15.240  0.00  0.00    +0.000 OA
ATOM     18  C   UNL     1      48.816   7.262  14.775  0.00  0.00    +0.000 C 
ATOM     19  N   UNL     1      47.595   6.775  14.384  0.00  0.00    +0.000 N 
ATOM     20  H   UNL     1      46.978   7.369  13.843  0.00  0.00    +0.000 HD
BRANCH  18  21
ATOM     21  C   UNL     1      48.999   8.714  14.665  0.00  0.00    +0.000 A 
ATOM     22  C   UNL     1      49.146   9.481  15.813  0.00  0.00    +0.000 A 
ATOM     23  S   UNL     1      49.318  11.150  15.503  0.00  0.00    +0.000 S 
ATOM     24  C   UNL     1      49.256  10.901  13.821  0.00  0.00    +0.000 A 
ATOM     25  N   UNL     1      49.377  11.942  12.953  0.00  0.00    +0.000 NA
ATOM     26  C   UNL     1      49.369  11.602  11.709  0.00  0.00    +0.000 A 
ATOM     27  N   UNL     1      49.240  10.319  11.250  0.00  0.00    +0.000 N 
ATOM     28  C   UNL     1      49.023   9.248  12.086  0.00  0.00    +0.000 A 
ATOM     29  O   UNL     1      48.759   8.138  11.636  0.00  0.00    +0.000 OA
ATOM     30  C   UNL     1      49.079   9.567  13.499  0.00  0.00    +0.000 A 
ATOM     31  H   UNL     1      49.210  10.122  10.261  0.00  0.00    +0.000 HD
ENDBRANCH  18  21
ENDBRANCH   1  19
TORSDOF 5
ENDMDL
MODEL 3
REMARK VINA RESULT:    -7.673      2.238      2.811
REMARK INTER + INTRA:         -10.966
REMARK INTER:                 -10.332
REMARK INTRA:                  -0.634
REMARK UNBOUND:                -1.050
REMARK  Name = 
REMARK  5 active torsions:
REMARK  status: ('A' for Active; 'I' for Inactive)
REMARK    1  A    between atoms: C_2  and  C_19
REMARK    2  A    between atoms: N_3  and  C_4
REMARK    3  A    between atoms: C_4  and  C_5
REMARK    4  A    between atoms: C_8  and  C_9
REMARK    5  A    between atoms: C_9  and  N_10
REMARK                            x       y       z     vdW  Elec       q    Type
REMARK                         _______ _______ _______ _____ _____    ______ ____
ROOT
ATOM      1  C   UNL     1      47.910   6.862  13.895  0.00  0.00    +0.000 C 
ENDROOT
BRANCH   1   2
ATOM      2  C   UNL     1      46.893   6.201  13.001  0.00  0.00    +0.000 A 
ATOM      3  C   UNL     1      46.433   4.911  13.292  0.00  0.00    +0.000 A 
ATOM      4  C   UNL     1      45.498   4.285  12.464  0.00  0.00    +0.000 A 
ATOM      5  C   UNL     1      45.019   4.928  11.315  0.00  0.00    +0.000 A 
ATOM      6  C   UNL     1      45.481   6.220  11.022  0.00  0.00    +0.000 A 
ATOM      7  C   UNL     1      46.417   6.846  11.851  0.00  0.00    +0.000 A 
BRANCH   5   8
ATOM      8  C   UNL     1      44.031   4.235  10.404  0.00  0.00    +0.000 C 
BRANCH   8   9
ATOM      9  N   UNL     1      44.545   2.925  10.020  0.00  0.00    +0.000 N 
ATOM     10  C   UNL     1      45.368   2.963   8.877  0.00  0.00    +0.000 A 
ATOM     11  C   UNL     1      45.903   1.770   8.405  0.00  0.00    +0.000 A 
ATOM     12  C   UNL     1      46.725   1.779   7.281  0.00  0.00    +0.000 A 
ATOM     13  C   UNL     1      46.983   2.990   6.674  0.00  0.00    +0.000 A 
ATOM     14  N   UNL     1      46.477   4.143   7.142  0.00  0.00    +0.000 NA
ATOM     15  N   UNL     1      45.676   4.123   8.256  0.00  0.00    +0.000 NA
ATOM     16  H   UNL     1      43.795   2.255   9.875  0.00  0.00    +0.000 HD
ENDBRANCH   8   9
ENDBRANCH   5   8
ENDBRANCH   1   2
BRANCH   1  19
ATOM     17  O   UNL     1      50.106   6.400  15.599  0.00  0.00    +0.000 OA
ATOM     18  C   UNL     1      48.971   6.186  16.019  0.00  0.00    +0.000 C 
ATOM     19  N   UNL     1      47.856   6.329  15.233  0.00  0.00    +0.000 N 
ATOM     20  H   UNL     1      46.941   6.321  15.670  0.00  0.00    +0.000 HD
BRANCH  18  21
ATOM     21  C   UNL     1      48.742   5.702  17.385  0.00  0.00    +0.000 A 
ATOM     22  C   UNL     1      49.019   4.379  17.706  0.00  0.00    +0.000 A 
ATOM     23  S   UNL     1      48.668   3.980  19.326  0.00  0.00    +0.000 S 
ATOM     24  C   UNL     1      48.183   5.574  19.673  0.00  0.00    +0.000 A 
ATOM     25  N   UNL     1      47.780   5.928  20.923  0.00  0.00    +0.000 NA
ATOM     26  C   UNL     1      47.496   7.179  21.057  0.00  0.00    +0.000 A 
ATOM     27  N   UNL     1      47.566   8.108  20.054  0.00  0.00    +0.000 N 
ATOM     28  C   UNL     1      47.879   7.779  18.756  0.00  0.00    +0.000 A 
ATOM     29  O   UNL     1      47.784   8.604  17.854  0.00  0.00    +0.000 OA
ATOM     30  C   UNL     1      48.262   6.394  18.561  0.00  0.00    +0.000 A 
ATOM     31  H   UNL     1      47.300   9.068  20.216  0.00  0.00    +0.000 HD
ENDBRANCH  18  21
ENDBRANCH   1  19
TORSDOF 5
ENDMDL
MODEL 4
REMARK VINA RESULT:    -7.506      1.914      2.449
REMARK INTER + INTRA:         -10.751
REMARK INTER:                 -10.050
REMARK INTRA:                  -0.701
REMARK UNBOUND:                -1.050
REMARK  Name = 
REMARK  5 active torsions:
REMARK  status: ('A' for Active; 'I' for Inactive)
REMARK    1  A    between atoms: C_2  and  C_19
REMARK    2  A    between atoms: N_3  and  C_4
REMARK    3  A    between atoms: C_4  and  C_5
REMARK    4  A    between atoms: C_8  and  C_9
REMARK    5  A    between atoms: C_9  and  N_10
REMARK                            x       y       z     vdW  Elec       q    Type
REMARK                         _______ _______ _______ _____ _____    ______ ____
ROOT
ATOM      1  C   UNL     1      48.500   6.904  13.827  0.00  0.00    +0.000 C 
ENDROOT
BRANCH   1   2
ATOM      2  C   UNL     1      47.401   6.227  13.050  0.00  0.00    +0.000 A 
ATOM      3  C   UNL     1      46.829   5.042  13.529  0.00  0.00    +0.000 A 
ATOM      4  C   UNL     1      45.816   4.400  12.812  0.00  0.00    +0.000 A 
ATOM      5  C   UNL     1      45.368   4.919  11.589  0.00  0.00    +0.000 A 
ATOM      6  C   UNL     1      45.942   6.105  11.109  0.00  0.00    +0.000 A 
ATOM      7  C   UNL     1      46.956   6.747  11.827  0.00  0.00    +0.000 A 
BRANCH   5   8
ATOM      8  C   UNL     1      44.294   4.205  10.800  0.00  0.00    +0.000 C 
BRANCH   8   9
ATOM      9  N   UNL     1      44.792   2.913  10.340  0.00  0.00    +0.000 N 
ATOM     10  C   UNL     1      45.422   2.977   9.080  0.00  0.00    +0.000 A 
ATOM     11  C   UNL     1      45.922   1.803   8.530  0.00  0.00    +0.000 A 
ATOM     12  C   UNL     1      46.554   1.836   7.289  0.00  0.00    +0.000 A 
ATOM     13  C   UNL     1      46.663   3.052   6.649  0.00  0.00    +0.000 A 
ATOM     14  N   UNL     1      46.193   4.188   7.190  0.00  0.00    +0.000 NA
ATOM     15  N   UNL     1      45.580   4.144   8.419  0.00  0.00    +0.000 NA
ATOM     16  H   UNL     1      44.057   2.213  10.316  0.00  0.00    +0.000 HD
ENDBRANCH   8   9
ENDBRANCH   5   8
ENDBRANCH   1   2
BRANCH   1  19
ATOM     17  O   UNL     1      49.741   8.394  15.871  0.00  0.00    +0.000 OA
ATOM     18  C   UNL     1      48.934   7.520  16.177  0.00  0.00    +0.000 C 
ATOM     19  N   UNL     1      48.334   6.712  15.246  0.00  0.00    +0.000 N 
ATOM     20  H   UNL     1      47.547   6.137  15.526  0.00  0.00    +0.000 HD
BRANCH  18  21
ATOM     21  C   UNL     1      48.605   7.244  17.581  0.00  0.00    +0.000 A 
ATOM     22  C   UNL     1      48.022   8.234  18.361  0.00  0.00    +0.000 A 
ATOM     23  S   UNL     1      47.735   7.755  19.973  0.00  0.00    +0.000 S 
ATOM     24  C   UNL     1      48.331   6.190  19.672  0.00  0.00    +0.000 A 
ATOM     25  N   UNL     1      48.342   5.244  20.650  0.00  0.00    +0.000 NA
ATOM     26  C   UNL     1      48.767   4.087  20.269  0.00  0.00    +0.000 A 
ATOM     27  N   UNL     1      49.193   3.791  19.002  0.00  0.00    +0.000 N 
ATOM     28  C   UNL     1      49.286   4.736  18.008  0.00  0.00    +0.000 A 
ATOM     29  O   UNL     1      49.815   4.474  16.932  0.00  0.00    +0.000 OA
ATOM     30  C   UNL     1      48.768   6.042  18.368  0.00  0.00    +0.000 A 
ATOM     31  H   UNL     1      49.544   2.872  18.774  0.00  0.00    +0.000 HD
ENDBRANCH  18  21
ENDBRANCH   1  19
TORSDOF 5
ENDMDL
MODEL 5
REMARK VINA RESULT:    -7.310      2.811      4.246
REMARK INTER + INTRA:         -10.497
REMARK INTER:                  -9.445
REMARK INTRA:                  -1.052
REMARK UNBOUND:                -1.050
REMARK  Name = 
REMARK  5 active torsions:
REMARK  status: ('A' for Active; 'I' for Inactive)
REMARK    1  A    between atoms: C_2  and  C_19
REMARK    2  A    between atoms: N_3  and  C_4
REMARK    3  A    between atoms: C_4  and  C_5
REMARK    4  A    between atoms: C_8  and  C_9
REMARK    5  A    between atoms: C_9  and  N_10
REMARK                            x       y       z     vdW  Elec       q    Type
REMARK                         _______ _______ _______ _____ _____    ______ ____
ROOT
ATOM      1  C   UNL     1      47.127   5.942  14.360  0.00  0.00    +0.000 C 
ENDROOT
BRANCH   1   2
ATOM      2  C   UNL     1      46.406   5.473  13.122  0.00  0.00    +0.000 A 
ATOM      3  C   UNL     1      46.308   6.312  12.005  0.00  0.00    +0.000 A 
ATOM      4  C   UNL     1      45.634   5.891  10.856  0.00  0.00    +0.000 A 
ATOM      5  C   UNL     1      45.024   4.630  10.808  0.00  0.00    +0.000 A 
ATOM      6  C   UNL     1      45.120   3.791  11.928  0.00  0.00    +0.000 A 
ATOM      7  C   UNL     1      45.795   4.212  13.078  0.00  0.00    +0.000 A 
BRANCH   5   8
ATOM      8  C   UNL     1      44.268   4.190   9.575  0.00  0.00    +0.000 C 
BRANCH   8   9
ATOM      9  N   UNL     1      45.074   4.436   8.384  0.00  0.00    +0.000 N 
ATOM     10  C   UNL     1      45.801   3.304   7.962  0.00  0.00    +0.000 A 
ATOM     11  C   UNL     1      46.619   3.422   6.845  0.00  0.00    +0.000 A 
ATOM     12  C   UNL     1      47.344   2.319   6.401  0.00  0.00    +0.000 A 
ATOM     13  C   UNL     1      47.215   1.135   7.096  0.00  0.00    +0.000 A 
ATOM     14  N   UNL     1      46.411   1.020   8.165  0.00  0.00    +0.000 NA
ATOM     15  N   UNL     1      45.693   2.112   8.588  0.00  0.00    +0.000 NA
ATOM     16  H   UNL     1      45.710   5.217   8.515  0.00  0.00    +0.000 HD
ENDBRANCH   8   9
ENDBRANCH   5   8
ENDBRANCH   1   2
BRANCH   1  19
ATOM     17  O   UNL     1      48.055   8.547  14.898  0.00  0.00    +0.000 OA
ATOM     18  C   UNL     1      48.822   7.735  14.386  0.00  0.00    +0.000 C 
ATOM     19  N   UNL     1      48.430   6.468  14.039  0.00  0.00    +0.000 N 
ATOM     20  H   UNL     1      49.136   5.783  13.795  0.00  0.00    +0.000 HD
BRANCH  18  21
ATOM     21  C   UNL     1      50.207   8.097  14.059  0.00  0.00    +0.000 A 
ATOM     22  C   UNL     1      51.091   8.439  15.074  0.00  0.00    +0.000 A 
ATOM     23  S   UNL     1      52.646   8.860  14.514  0.00  0.00    +0.000 S 
ATOM     24  C   UNL     1      52.210   8.548  12.899  0.00  0.00    +0.000 A 
ATOM     25  N   UNL     1      53.111   8.689  11.889  0.00  0.00    +0.000 NA
ATOM     26  C   UNL     1      52.662   8.365  10.724  0.00  0.00    +0.000 A 
ATOM     27  N   UNL     1      51.390   7.924  10.472  0.00  0.00    +0.000 N 
ATOM     28  C   UNL     1      50.420   7.855  11.445  0.00  0.00    +0.000 A 
ATOM     29  O   UNL     1      49.254   7.604  11.158  0.00  0.00    +0.000 OA
ATOM     30  C   UNL     1      50.888   8.155  12.784  0.00  0.00    +0.000 A 
ATOM     31  H   UNL     1      51.090   7.716   9.531  0.00  0.00    +0.000 HD
ENDBRANCH  18  21
ENDBRANCH   1  19
TORSDOF 5
ENDMDL
MODEL 6
REMARK VINA RESULT:    -7.150      3.396      5.385
REMARK INTER + INTRA:         -10.291
REMARK INTER:                  -9.496
REMARK INTRA:                  -0.795
REMARK UNBOUND:                -1.050
REMARK  Name = 
REMARK  5 active torsions:
REMARK  status: ('A' for Active; 'I' for Inactive)
REMARK    1  A    between atoms: C_2  and  C_19
REMARK    2  A    between atoms: N_3  and  C_4
REMARK    3  A    between atoms: C_4  and  C_5
REMARK    4  A    between atoms: C_8  and  C_9
REMARK    5  A    between atoms: C_9  and  N_10
REMARK                            x       y       z     vdW  Elec       q    Type
REMARK                         _______ _______ _______ _____ _____    ______ ____
ROOT
ATOM      1  C   UNL     1      47.370   6.452  13.786  0.00  0.00    +0.000 C 
ENDROOT
BRANCH   1   2
ATOM      2  C   UNL     1      46.501   5.636  12.865  0.00  0.00    +0.000 A 
ATOM      3  C   UNL     1      46.261   4.284  13.139  0.00  0.00    +0.000 A 
ATOM      4  C   UNL     1      45.465   3.515  12.287  0.00  0.00    +0.000 A 
ATOM      5  C   UNL     1      44.907   4.077  11.131  0.00  0.00    +0.000 A 
ATOM      6  C   UNL     1      45.148   5.431  10.855  0.00  0.00    +0.000 A 
ATOM      7  C   UNL     1      45.946   6.201  11.708  0.00  0.00    +0.000 A 
BRANCH   5   8
ATOM      8  C   UNL     1      44.072   3.235  10.194  0.00  0.00    +0.000 C 
BRANCH   8   9
ATOM      9  N   UNL     1      44.839   2.076   9.751  0.00  0.00    +0.000 N 
ATOM     10  C   UNL     1      45.579   2.315   8.575  0.00  0.00    +0.000 A 
ATOM     11  C   UNL     1      46.337   1.277   8.048  0.00  0.00    +0.000 A 
ATOM     12  C   UNL     1      47.084   1.487   6.891  0.00  0.00    +0.000 A 
ATOM     13  C   UNL     1      47.043   2.736   6.309  0.00  0.00    +0.000 A 
ATOM     14  N   UNL     1      46.322   3.742   6.830  0.00  0.00    +0.000 NA
ATOM     15  N   UNL     1      45.598   3.526   7.977  0.00  0.00    +0.000 NA
ATOM     16  H   UNL     1      44.247   1.261   9.618  0.00  0.00    +0.000 HD
ENDBRANCH   8   9
ENDBRANCH   5   8
ENDBRANCH   1   2
BRANCH   1  19
ATOM     17  O   UNL     1      49.278   8.221  14.867  0.00  0.00    +0.000 OA
ATOM     18  C   UNL     1      49.174   8.130  13.646  0.00  0.00    +0.000 C 
ATOM     19  N   UNL     1      48.231   7.339  13.044  0.00  0.00    +0.000 N 
ATOM     20  H   UNL     1      48.303   7.156  12.049  0.00  0.00    +0.000 HD
BRANCH  18  21
ATOM     21  C   UNL     1      50.026   8.920  12.749  0.00  0.00    +0.000 A 
ATOM     22  C   UNL     1      51.399   8.713  12.739  0.00  0.00    +0.000 A 
ATOM     23  S   UNL     1      52.237   9.735  11.661  0.00  0.00    +0.000 S 
ATOM     24  C   UNL     1      50.790  10.455  11.129  0.00  0.00    +0.000 A 
ATOM     25  N   UNL     1      50.797  11.415  10.166  0.00  0.00    +0.000 NA
ATOM     26  C   UNL     1      49.626  11.832   9.819  0.00  0.00    +0.000 A 
ATOM     27  N   UNL     1      48.448  11.385  10.356  0.00  0.00    +0.000 N 
ATOM     28  C   UNL     1      48.397  10.485  11.394  0.00  0.00    +0.000 A 
ATOM     29  O   UNL     1      47.337  10.223  11.952  0.00  0.00    +0.000 OA
ATOM     30  C   UNL     1      49.684   9.943  11.784  0.00  0.00    +0.000 A 
ATOM     31  H   UNL     1      47.564  11.775  10.063  0.00  0.00    +0.000 HD
ENDBRANCH  18  21
ENDBRANCH   1  19
TORSDOF 5
ENDMDL
MODEL 7
REMARK VINA RESULT:    -7.150      3.059      4.263
REMARK INTER + INTRA:         -10.290
REMARK INTER:                  -9.426
REMARK INTRA:                  -0.864
REMARK UNBOUND:                -1.050
REMARK  Name = 
REMARK  5 active torsions:
REMARK  status: ('A' for Active; 'I' for Inactive)
REMARK    1  A    between atoms: C_2  and  C_19
REMARK    2  A    between atoms: N_3  and  C_4
REMARK    3  A    between atoms: C_4  and  C_5
REMARK    4  A    between atoms: C_8  and  C_9
REMARK    5  A    between atoms: C_9  and  N_10
REMARK                            x       y       z     vdW  Elec       q    Type
REMARK                         _______ _______ _______ _____ _____    ______ ____
ROOT
ATOM      1  C   UNL     1      47.383   6.043  14.020  0.00  0.00    +0.000 C 
ENDROOT
BRANCH   1   2
ATOM      2  C   UNL     1      46.547   5.483  12.897  0.00  0.00    +0.000 A 
ATOM      3  C   UNL     1      46.420   6.190  11.695  0.00  0.00    +0.000 A 
ATOM      4  C   UNL     1      45.641   5.685  10.652  0.00  0.00    +0.000 A 
ATOM      5  C   UNL     1      44.953   4.473  10.796  0.00  0.00    +0.000 A 
ATOM      6  C   UNL     1      45.079   3.765  12.001  0.00  0.00    +0.000 A 
ATOM      7  C   UNL     1      45.859   4.271  13.045  0.00  0.00    +0.000 A 
BRANCH   5   8
ATOM      8  C   UNL     1      44.085   3.945   9.677  0.00  0.00    +0.000 C 
BRANCH   8   9
ATOM      9  N   UNL     1      44.713   4.220   8.389  0.00  0.00    +0.000 N 
ATOM     10  C   UNL     1      45.530   3.166   7.932  0.00  0.00    +0.000 A 
ATOM     11  C   UNL     1      46.195   3.321   6.722  0.00  0.00    +0.000 A 
ATOM     12  C   UNL     1      47.005   2.294   6.243  0.00  0.00    +0.000 A 
ATOM     13  C   UNL     1      47.112   1.146   6.998  0.00  0.00    +0.000 A 
ATOM     14  N   UNL     1      46.455   0.992   8.160  0.00  0.00    +0.000 NA
ATOM     15  N   UNL     1      45.652   2.008   8.617  0.00  0.00    +0.000 NA
ATOM     16  H   UNL     1      45.251   5.081   8.410  0.00  0.00    +0.000 HD
ENDBRANCH   8   9
ENDBRANCH   5   8
ENDBRANCH   1   2
BRANCH   1  19
ATOM     17  O   UNL     1      47.706   8.835  13.831  0.00  0.00    +0.000 OA
ATOM     18  C   UNL     1      48.640   8.104  13.509  0.00  0.00    +0.000 C 
ATOM     19  N   UNL     1      48.541   6.736  13.515  0.00  0.00    +0.000 N 
ATOM     20  H   UNL     1      49.384   6.181  13.421  0.00  0.00    +0.000 HD
BRANCH  18  21
ATOM     21  C   UNL     1      49.914   8.658  13.035  0.00  0.00    +0.000 A 
ATOM     22  C   UNL     1      49.942   9.449  11.894  0.00  0.00    +0.000 A 
ATOM     23  S   UNL     1      51.505   9.984  11.470  0.00  0.00    +0.000 S 
ATOM     24  C   UNL     1      52.194   9.222  12.827  0.00  0.00    +0.000 A 
ATOM     25  N   UNL     1      53.528   9.313  13.080  0.00  0.00    +0.000 NA
ATOM     26  C   UNL     1      53.904   8.736  14.171  0.00  0.00    +0.000 A 
ATOM     27  N   UNL     1      53.072   8.066  15.027  0.00  0.00    +0.000 N 
ATOM     28  C   UNL     1      51.736   7.869  14.765  0.00  0.00    +0.000 A 
ATOM     29  O   UNL     1      51.054   7.136  15.473  0.00  0.00    +0.000 OA
ATOM     30  C   UNL     1      51.250   8.545  13.579  0.00  0.00    +0.000 A 
ATOM     31  H   UNL     1      53.435   7.608  15.851  0.00  0.00    +0.000 HD
ENDBRANCH  18  21
ENDBRANCH   1  19
TORSDOF 5
ENDMDL
MODEL 8
REMARK VINA RESULT:    -7.032      3.649      5.814
REMARK INTER + INTRA:         -10.138
REMARK INTER:                  -9.501
REMARK INTRA:                  -0.638
REMARK UNBOUND:                -1.050
REMARK  Name = 
REMARK  5 active torsions:
REMARK  status: ('A' for Active; 'I' for Inactive)
REMARK    1  A    between atoms: C_2  and  C_19
REMARK    2  A    between atoms: N_3  and  C_4
REMARK    3  A    between atoms: C_4  and  C_5
REMARK    4  A    between atoms: C_8  and  C_9
REMARK    5  A    between atoms: C_9  and  N_10
REMARK                            x       y       z     vdW  Elec       q    Type
REMARK                         _______ _______ _______ _____ _____    ______ ____
ROOT
ATOM      1  C   UNL     1      46.892   6.791  13.376  0.00  0.00    +0.000 C 
ENDROOT
BRANCH   1   2
ATOM      2  C   UNL     1      46.194   5.779  12.504  0.00  0.00    +0.000 A 
ATOM      3  C   UNL     1      45.659   6.165  11.269  0.00  0.00    +0.000 A 
ATOM      4  C   UNL     1      45.002   5.238  10.457  0.00  0.00    +0.000 A 
ATOM      5  C   UNL     1      44.845   3.909  10.873  0.00  0.00    +0.000 A 
ATOM      6  C   UNL     1      45.380   3.522  12.111  0.00  0.00    +0.000 A 
ATOM      7  C   UNL     1      46.038   4.450  12.924  0.00  0.00    +0.000 A 
BRANCH   5   8
ATOM      8  C   UNL     1      44.106   2.915  10.007  0.00  0.00    +0.000 C 
BRANCH   8   9
ATOM      9  N   UNL     1      45.012   1.851   9.587  0.00  0.00    +0.000 N 
ATOM     10  C   UNL     1      45.706   2.150   8.397  0.00  0.00    +0.000 A 
ATOM     11  C   UNL     1      46.587   1.203   7.889  0.00  0.00    +0.000 A 
ATOM     12  C   UNL     1      47.291   1.473   6.718  0.00  0.00    +0.000 A 
ATOM     13  C   UNL     1      47.086   2.689   6.103  0.00  0.00    +0.000 A 
ATOM     14  N   UNL     1      46.246   3.609   6.605  0.00  0.00    +0.000 NA
ATOM     15  N   UNL     1      45.564   3.335   7.765  0.00  0.00    +0.000 NA
ATOM     16  H   UNL     1      44.529   0.964   9.483  0.00  0.00    +0.000 HD
ENDBRANCH   8   9
ENDBRANCH   5   8
ENDBRANCH   1   2
BRANCH   1  19
ATOM     17  O   UNL     1      48.714   8.819  14.084  0.00  0.00    +0.000 OA
ATOM     18  C   UNL     1      48.057   8.942  13.053  0.00  0.00    +0.000 C 
ATOM     19  N   UNL     1      47.108   8.029  12.671  0.00  0.00    +0.000 N 
ATOM     20  H   UNL     1      46.728   8.076  11.732  0.00  0.00    +0.000 HD
BRANCH  18  21
ATOM     21  C   UNL     1      48.209  10.118  12.188  0.00  0.00    +0.000 A 
ATOM     22  C   UNL     1      49.479  10.586  11.875  0.00  0.00    +0.000 A 
ATOM     23  S   UNL     1      49.471  11.976  10.886  0.00  0.00    +0.000 S 
ATOM     24  C   UNL     1      47.771  11.971  10.797  0.00  0.00    +0.000 A 
ATOM     25  N   UNL     1      47.105  12.904  10.064  0.00  0.00    +0.000 NA
ATOM     26  C   UNL     1      45.825  12.748  10.039  0.00  0.00    +0.000 A 
ATOM     27  N   UNL     1      45.147  11.751  10.689  0.00  0.00    +0.000 N 
ATOM     28  C   UNL     1      45.769  10.843  11.514  0.00  0.00    +0.000 A 
ATOM     29  O   UNL     1      45.118  10.062  12.199  0.00  0.00    +0.000 OA
ATOM     30  C   UNL     1      47.215  10.940  11.534  0.00  0.00    +0.000 A 
ATOM     31  H   UNL     1      44.139  11.701  10.654  0.00  0.00    +0.000 HD
ENDBRANCH  18  21
ENDBRANCH   1  19
TORSDOF 5
ENDMDL
MODEL 9
REMARK VINA RESULT:    -6.926      4.837      7.309
REMARK INTER + INTRA:         -10.001
REMARK INTER:                  -9.082
REMARK INTRA:                  -0.919
REMARK UNBOUND:                -1.050
REMARK  Name = 
REMARK  5 active torsions:
REMARK  status: ('A' for Active; 'I' for Inactive)
REMARK    1  A    between atoms: C_2  and  C_19
REMARK    2  A    between atoms: N_3  and  C_4
REMARK    3  A    between atoms: C_4  and  C_5
REMARK    4  A    between atoms: C_8  and  C_9
REMARK    5  A    between atoms: C_9  and  N_10
REMARK                            x       y       z     vdW  Elec       q    Type
REMARK                         _______ _______ _______ _____ _____    ______ ____
ROOT
ATOM      1  C   UNL     1      46.405   8.245  13.034  0.00  0.00    +0.000 C 
ENDROOT
BRANCH   1   2
ATOM      2  C   UNL     1      47.803   8.383  12.490  0.00  0.00    +0.000 A 
ATOM      3  C   UNL     1      48.284   9.637  12.095  0.00  0.00    +0.000 A 
ATOM      4  C   UNL     1      49.575   9.775  11.579  0.00  0.00    +0.000 A 
ATOM      5  C   UNL     1      50.406   8.657  11.427  0.00  0.00    +0.000 A 
ATOM      6  C   UNL     1      49.924   7.400  11.821  0.00  0.00    +0.000 A 
ATOM      7  C   UNL     1      48.632   7.262  12.337  0.00  0.00    +0.000 A 
BRANCH   5   8
ATOM      8  C   UNL     1      51.791   8.804  10.839  0.00  0.00    +0.000 C 
BRANCH   8   9
ATOM      9  N   UNL     1      52.518   7.545  10.961  0.00  0.00    +0.000 N 
ATOM     10  C   UNL     1      52.879   6.990   9.716  0.00  0.00    +0.000 A 
ATOM     11  C   UNL     1      53.562   5.780   9.704  0.00  0.00    +0.000 A 
ATOM     12  C   UNL     1      53.938   5.212   8.489  0.00  0.00    +0.000 A 
ATOM     13  C   UNL     1      53.615   5.884   7.330  0.00  0.00    +0.000 A 
ATOM     14  N   UNL     1      52.969   7.062   7.345  0.00  0.00    +0.000 NA
ATOM     15  N   UNL     1      52.612   7.617   8.549  0.00  0.00    +0.000 NA
ATOM     16  H   UNL     1      51.996   6.859  11.497  0.00  0.00    +0.000 HD
ENDBRANCH   8   9
ENDBRANCH   5   8
ENDBRANCH   1   2
BRANCH   1  19
ATOM     17  O   UNL     1      44.451   7.648  11.094  0.00  0.00    +0.000 OA
ATOM     18  C   UNL     1      44.946   6.730  11.744  0.00  0.00    +0.000 C 
ATOM     19  N   UNL     1      45.857   6.943  12.746  0.00  0.00    +0.000 N 
ATOM     20  H   UNL     1      46.369   6.154  13.123  0.00  0.00    +0.000 HD
BRANCH  18  21
ATOM     21  C   UNL     1      44.541   5.336  11.523  0.00  0.00    +0.000 A 
ATOM     22  C   UNL     1      43.771   4.681  12.475  0.00  0.00    +0.000 A 
ATOM     23  S   UNL     1      43.418   3.061  12.072  0.00  0.00    +0.000 S 
ATOM     24  C   UNL     1      44.237   3.193  10.586  0.00  0.00    +0.000 A 
ATOM     25  N   UNL     1      44.292   2.145   9.720  0.00  0.00    +0.000 NA
ATOM     26  C   UNL     1      44.895   2.403   8.610  0.00  0.00    +0.000 A 
ATOM     27  N   UNL     1      45.460   3.608   8.288  0.00  0.00    +0.000 N 
ATOM     28  C   UNL     1      45.510   4.664   9.168  0.00  0.00    +0.000 A 
ATOM     29  O   UNL     1      46.155   5.674   8.907  0.00  0.00    +0.000 OA
ATOM     30  C   UNL     1      44.796   4.447  10.411  0.00  0.00    +0.000 A 
ATOM     31  H   UNL     1      45.946   3.736   7.413  0.00  0.00    +0.000 HD
ENDBRANCH  18  21
ENDBRANCH   1  19
TORSDOF 5
ENDMDL
