MODEL 1
REMARK VINA RESULT:    -8.416      0.000      0.000
REMARK INTER + INTRA:         -12.751
REMARK INTER:                 -11.860
REMARK INTRA:                  -0.891
REMARK UNBOUND:                -0.891
REMARK  Name = 
REMARK  8 active torsions:
REMARK  status: ('A' for Active; 'I' for Inactive)
REMARK    1  A    between atoms: C_1  and  C_2
REMARK    2  A    between atoms: C_6  and  C_7
REMARK    3  A    between atoms: C_7  and  N_8
REMARK    4  A    between atoms: N_8  and  C_9
REMARK    5  A    between atoms: C_9  and  C_10
REMARK    6  A    between atoms: C_13  and  C_14
REMARK    7  A    between atoms: C_14  and  N_15
REMARK    8  A    between atoms: C_16  and  C_18
REMARK                            x       y       z     vdW  Elec       q    Type
REMARK                         _______ _______ _______ _____ _____    ______ ____
ROOT
ATOM      1  C   UNL     1      44.692   5.617  11.883  0.00  0.00    +0.000 A 
ATOM      2  C   UNL     1      44.964   4.999  13.115  0.00  0.00    +0.000 A 
ATOM      3  C   UNL     1      46.151   5.265  13.804  0.00  0.00    +0.000 A 
ATOM      4  C   UNL     1      47.093   6.155  13.277  0.00  0.00    +0.000 A 
ATOM      5  C   UNL     1      46.844   6.737  12.028  0.00  0.00    +0.000 A 
ATOM      6  C   UNL     1      45.653   6.480  11.342  0.00  0.00    +0.000 A 
ENDROOT
BRANCH   1   7
ATOM      7  C   UNL     1      43.389   5.349  11.161  0.00  0.00    +0.000 C 
BRANCH   7   8
ATOM      8  N   UNL     1      43.631   4.828   9.820  0.00  0.00    +0.000 NA
ATOM      9  H   UNL     1      42.775   4.864   9.266  0.00  0.00    +0.000 HD
BRANCH   8  10
ATOM     10  C   UNL     1      44.071   3.423   9.844  0.00  0.00    +0.000 C 
BRANCH  10  16
ATOM     11  C   UNL     1      46.931   0.196   7.568  0.00  0.00    +0.000 C 
ATOM     12  C   UNL     1      46.520   1.624   7.744  0.00  0.00    +0.000 A 
ATOM     13  C   UNL     1      47.125   2.640   7.033  0.00  0.00    +0.000 A 
ATOM     14  C   UNL     1      46.659   3.913   7.273  0.00  0.00    +0.000 A 
ATOM     15  N   UNL     1      45.675   4.193   8.146  0.00  0.00    +0.000 NA
ATOM     16  C   UNL     1      45.150   3.139   8.812  0.00  0.00    +0.000 A 
ATOM     17  N   UNL     1      45.530   1.857   8.632  0.00  0.00    +0.000 NA
ENDBRANCH  10  16
ENDBRANCH   8  10
ENDBRANCH   7   8
ENDBRANCH   1   7
BRANCH   4  18
ATOM     18  C   UNL     1      48.372   6.461  14.013  0.00  0.00    +0.000 C 
BRANCH  18  19
ATOM     19  N   UNL     1      48.118   6.702  15.412  0.00  0.00    +0.000 N 
ATOM     20  C   UNL     1      49.080   6.485  16.365  0.00  0.00    +0.000 C 
ATOM     21  O   UNL     1      50.213   6.113  16.077  0.00  0.00    +0.000 OA
ATOM     22  H   UNL     1      47.145   6.754  15.692  0.00  0.00    +0.000 HD
BRANCH  20  23
ATOM     23  C   UNL     1      48.702   6.796  17.745  0.00  0.00    +0.000 A 
ATOM     24  C   UNL     1      48.371   8.099  18.099  0.00  0.00    +0.000 A 
ATOM     25  S   UNL     1      47.902   8.268  19.728  0.00  0.00    +0.000 S 
ATOM     26  C   UNL     1      48.174   6.616  20.036  0.00  0.00    +0.000 A 
ATOM     27  N   UNL     1      47.979   6.093  21.277  0.00  0.00    +0.000 NA
ATOM     28  C   UNL     1      48.251   4.833  21.374  0.00  0.00    +0.000 A 
ATOM     29  N   UNL     1      48.687   4.047  20.337  0.00  0.00    +0.000 N 
ATOM     30  C   UNL     1      48.869   4.525  19.062  0.00  0.00    +0.000 A 
ATOM     31  O   UNL     1      49.218   3.781  18.148  0.00  0.00    +0.000 OA
ATOM     32  C   UNL     1      48.593   5.940  18.904  0.00  0.00    +0.000 A 
ATOM     33  H   UNL     1      48.865   3.064  20.477  0.00  0.00    +0.000 HD
ENDBRANCH  20  23
ENDBRANCH  18  19
ENDBRANCH   4  18
TORSDOF 7
ENDMDL
MODEL 2
REMARK VINA RESULT:    -8.148      1.320      2.208
REMARK INTER + INTRA:         -12.374
REMARK INTER:                 -11.398
REMARK INTRA:                  -0.976
REMARK UNBOUND:                -0.891
REMARK  Name = 
REMARK  8 active torsions:
REMARK  status: ('A' for Active; 'I' for Inactive)
REMARK    1  A    between atoms: C_1  and  C_2
REMARK    2  A    between atoms: C_6  and  C_7
REMARK    3  A    between atoms: C_7  and  N_8
REMARK    4  A    between atoms: N_8  and  C_9
REMARK    5  A    between atoms: C_9  and  C_10
REMARK    6  A    between atoms: C_13  and  C_14
REMARK    7  A    between atoms: C_14  and  N_15
REMARK    8  A    between atoms: C_16  and  C_18
REMARK                            x       y       z     vdW  Elec       q    Type
REMARK                         _______ _______ _______ _____ _____    ______ ____
ROOT
ATOM      1  C   UNL     1      44.565   5.795  11.909  0.00  0.00    +0.000 A 
ATOM      2  C   UNL     1      45.390   6.882  11.574  0.00  0.00    +0.000 A 
ATOM      3  C   UNL     1      46.580   7.119  12.268  0.00  0.00    +0.000 A 
ATOM      4  C   UNL     1      46.972   6.275  13.313  0.00  0.00    +0.000 A 
ATOM      5  C   UNL     1      46.129   5.220  13.678  0.00  0.00    +0.000 A 
ATOM      6  C   UNL     1      44.943   4.975  12.979  0.00  0.00    +0.000 A 
ENDROOT
BRANCH   1   7
ATOM      7  C   UNL     1      43.296   5.526  11.129  0.00  0.00    +0.000 C 
BRANCH   7   8
ATOM      8  N   UNL     1      43.598   4.966   9.816  0.00  0.00    +0.000 NA
ATOM      9  H   UNL     1      42.768   4.982   9.225  0.00  0.00    +0.000 HD
BRANCH   8  10
ATOM     10  C   UNL     1      44.039   3.563   9.903  0.00  0.00    +0.000 C 
BRANCH  10  16
ATOM     11  C   UNL     1      46.794   0.214   7.671  0.00  0.00    +0.000 C 
ATOM     12  C   UNL     1      46.423   1.656   7.822  0.00  0.00    +0.000 A 
ATOM     13  C   UNL     1      47.052   2.641   7.088  0.00  0.00    +0.000 A 
ATOM     14  C   UNL     1      46.622   3.930   7.305  0.00  0.00    +0.000 A 
ATOM     15  N   UNL     1      45.652   4.255   8.179  0.00  0.00    +0.000 NA
ATOM     16  C   UNL     1      45.104   3.229   8.869  0.00  0.00    +0.000 A 
ATOM     17  N   UNL     1      45.446   1.934   8.712  0.00  0.00    +0.000 NA
ENDBRANCH  10  16
ENDBRANCH   8  10
ENDBRANCH   7   8
ENDBRANCH   1   7
BRANCH   4  18
ATOM     18  C   UNL     1      48.258   6.512  14.064  0.00  0.00    +0.000 C 
BRANCH  18  19
ATOM     19  N   UNL     1      48.043   6.450  15.488  0.00  0.00    +0.000 N 
ATOM     20  C   UNL     1      49.080   6.244  16.363  0.00  0.00    +0.000 C 
ATOM     21  O   UNL     1      50.242   6.141  15.986  0.00  0.00    +0.000 OA
ATOM     22  H   UNL     1      47.093   6.274  15.795  0.00  0.00    +0.000 HD
BRANCH  20  23
ATOM     23  C   UNL     1      48.730   6.231  17.785  0.00  0.00    +0.000 A 
ATOM     24  C   UNL     1      48.883   5.067  18.528  0.00  0.00    +0.000 A 
ATOM     25  S   UNL     1      48.484   5.247  20.174  0.00  0.00    +0.000 S 
ATOM     26  C   UNL     1      48.041   6.875  19.945  0.00  0.00    +0.000 A 
ATOM     27  N   UNL     1      47.574   7.626  20.980  0.00  0.00    +0.000 NA
ATOM     28  C   UNL     1      47.248   8.835  20.657  0.00  0.00    +0.000 A 
ATOM     29  N   UNL     1      47.361   9.363  19.395  0.00  0.00    +0.000 N 
ATOM     30  C   UNL     1      47.855   8.651  18.329  0.00  0.00    +0.000 A 
ATOM     31  O   UNL     1      47.984   9.171  17.222  0.00  0.00    +0.000 OA
ATOM     32  C   UNL     1      48.219   7.281  18.636  0.00  0.00    +0.000 A 
ATOM     33  H   UNL     1      47.105  10.321  19.215  0.00  0.00    +0.000 HD
ENDBRANCH  20  23
ENDBRANCH  18  19
ENDBRANCH   4  18
TORSDOF 7
ENDMDL
MODEL 3
REMARK VINA RESULT:    -8.044      1.565      1.949
REMARK INTER + INTRA:         -12.227
REMARK INTER:                 -11.385
REMARK INTRA:                  -0.842
REMARK UNBOUND:                -0.891
REMARK  Name = 
REMARK  8 active torsions:
REMARK  status: ('A' for Active; 'I' for Inactive)
REMARK    1  A    between atoms: C_1  and  C_2
REMARK    2  A    between atoms: C_6  and  C_7
REMARK    3  A    between atoms: C_7  and  N_8
REMARK    4  A    between atoms: N_8  and  C_9
REMARK    5  A    between atoms: C_9  and  C_10
REMARK    6  A    between atoms: C_13  and  C_14
REMARK    7  A    between atoms: C_14  and  N_15
REMARK    8  A    between atoms: C_16  and  C_18
REMARK                            x       y       z     vdW  Elec       q    Type
REMARK                         _______ _______ _______ _____ _____    ______ ____
ROOT
ATOM      1  C   UNL     1      44.378   6.073  11.577  0.00  0.00    +0.000 A 
ATOM      2  C   UNL     1      44.353   7.471  11.712  0.00  0.00    +0.000 A 
ATOM      3  C   UNL     1      45.398   8.149  12.346  0.00  0.00    +0.000 A 
ATOM      4  C   UNL     1      46.493   7.445  12.859  0.00  0.00    +0.000 A 
ATOM      5  C   UNL     1      46.498   6.048  12.765  0.00  0.00    +0.000 A 
ATOM      6  C   UNL     1      45.458   5.368  12.122  0.00  0.00    +0.000 A 
ENDROOT
BRANCH   1   7
ATOM      7  C   UNL     1      43.259   5.350  10.857  0.00  0.00    +0.000 C 
BRANCH   7   8
ATOM      8  N   UNL     1      43.724   4.794   9.592  0.00  0.00    +0.000 NA
ATOM      9  H   UNL     1      42.977   4.820   8.898  0.00  0.00    +0.000 HD
BRANCH   8  10
ATOM     10  C   UNL     1      44.138   3.387   9.726  0.00  0.00    +0.000 C 
BRANCH  10  16
ATOM     11  C   UNL     1      46.891  -0.078   7.678  0.00  0.00    +0.000 C 
ATOM     12  C   UNL     1      46.502   1.366   7.733  0.00  0.00    +0.000 A 
ATOM     13  C   UNL     1      47.100   2.303   6.915  0.00  0.00    +0.000 A 
ATOM     14  C   UNL     1      46.656   3.599   7.049  0.00  0.00    +0.000 A 
ATOM     15  N   UNL     1      45.701   3.973   7.919  0.00  0.00    +0.000 NA
ATOM     16  C   UNL     1      45.184   2.993   8.694  0.00  0.00    +0.000 A 
ATOM     17  N   UNL     1      45.542   1.694   8.624  0.00  0.00    +0.000 NA
ENDBRANCH  10  16
ENDBRANCH   8  10
ENDBRANCH   7   8
ENDBRANCH   1   7
BRANCH   4  18
ATOM     18  C   UNL     1      47.632   8.163  13.535  0.00  0.00    +0.000 C 
BRANCH  18  19
ATOM     19  N   UNL     1      47.942   7.558  14.806  0.00  0.00    +0.000 N 
ATOM     20  C   UNL     1      49.190   7.059  15.079  0.00  0.00    +0.000 C 
ATOM     21  O   UNL     1      50.114   7.134  14.277  0.00  0.00    +0.000 OA
ATOM     22  H   UNL     1      47.153   7.256  15.368  0.00  0.00    +0.000 HD
BRANCH  20  23
ATOM     23  C   UNL     1      49.381   6.496  16.419  0.00  0.00    +0.000 A 
ATOM     24  C   UNL     1      50.134   7.185  17.362  0.00  0.00    +0.000 A 
ATOM     25  S   UNL     1      50.203   6.414  18.879  0.00  0.00    +0.000 S 
ATOM     26  C   UNL     1      49.272   5.104  18.317  0.00  0.00    +0.000 A 
ATOM     27  N   UNL     1      48.976   4.054  19.133  0.00  0.00    +0.000 NA
ATOM     28  C   UNL     1      48.287   3.118  18.567  0.00  0.00    +0.000 A 
ATOM     29  N   UNL     1      47.858   3.143  17.263  0.00  0.00    +0.000 N 
ATOM     30  C   UNL     1      48.108   4.194  16.415  0.00  0.00    +0.000 A 
ATOM     31  O   UNL     1      47.669   4.202  15.267  0.00  0.00    +0.000 OA
ATOM     32  C   UNL     1      48.894   5.266  16.998  0.00  0.00    +0.000 A 
ATOM     33  H   UNL     1      47.308   2.386  16.889  0.00  0.00    +0.000 HD
ENDBRANCH  20  23
ENDBRANCH  18  19
ENDBRANCH   4  18
TORSDOF 7
ENDMDL
MODEL 4
REMARK VINA RESULT:    -7.422      3.250      8.976
REMARK INTER + INTRA:         -11.351
REMARK INTER:                  -9.928
REMARK INTRA:                  -1.423
REMARK UNBOUND:                -0.891
REMARK  Name = 
REMARK  8 active torsions:
REMARK  status: ('A' for Active; 'I' for Inactive)
REMARK    1  A    between atoms: C_1  and  C_2
REMARK    2  A    between atoms: C_6  and  C_7
REMARK    3  A    between atoms: C_7  and  N_8
REMARK    4  A    between atoms: N_8  and  C_9
REMARK    5  A    between atoms: C_9  and  C_10
REMARK    6  A    between atoms: C_13  and  C_14
REMARK    7  A    between atoms: C_14  and  N_15
REMARK    8  A    between atoms: C_16  and  C_18
REMARK                            x       y       z     vdW  Elec       q    Type
REMARK                         _______ _______ _______ _____ _____    ______ ____
ROOT
ATOM      1  C   UNL     1      48.849   7.966  16.321  0.00  0.00    +0.000 A 
ATOM      2  C   UNL     1      48.329   9.103  15.680  0.00  0.00    +0.000 A 
ATOM      3  C   UNL     1      47.920   9.050  14.345  0.00  0.00    +0.000 A 
ATOM      4  C   UNL     1      48.020   7.857  13.619  0.00  0.00    +0.000 A 
ATOM      5  C   UNL     1      48.579   6.735  14.243  0.00  0.00    +0.000 A 
ATOM      6  C   UNL     1      48.980   6.784  15.582  0.00  0.00    +0.000 A 
ENDROOT
BRANCH   1   7
ATOM      7  C   UNL     1      49.257   8.024  17.778  0.00  0.00    +0.000 C 
BRANCH   7   8
ATOM      8  N   UNL     1      48.223   7.453  18.634  0.00  0.00    +0.000 NA
ATOM      9  H   UNL     1      47.943   8.125  19.348  0.00  0.00    +0.000 HD
BRANCH   8  10
ATOM     10  C   UNL     1      48.691   6.246  19.337  0.00  0.00    +0.000 C 
BRANCH  10  16
ATOM     11  C   UNL     1      50.628   2.261  17.301  0.00  0.00    +0.000 C 
ATOM     12  C   UNL     1      49.416   3.110  17.524  0.00  0.00    +0.000 A 
ATOM     13  C   UNL     1      48.198   2.787  16.962  0.00  0.00    +0.000 A 
ATOM     14  C   UNL     1      47.153   3.638  17.243  0.00  0.00    +0.000 A 
ATOM     15  N   UNL     1      47.273   4.736  18.011  0.00  0.00    +0.000 NA
ATOM     16  C   UNL     1      48.506   4.986  18.505  0.00  0.00    +0.000 A 
ATOM     17  N   UNL     1      49.585   4.202  18.300  0.00  0.00    +0.000 NA
ENDBRANCH  10  16
ENDBRANCH   8  10
ENDBRANCH   7   8
ENDBRANCH   1   7
BRANCH   4  18
ATOM     18  C   UNL     1      47.573   7.781  12.182  0.00  0.00    +0.000 C 
BRANCH  18  19
ATOM     19  N   UNL     1      46.875   6.546  11.924  0.00  0.00    +0.000 N 
ATOM     20  C   UNL     1      45.512   6.451  12.051  0.00  0.00    +0.000 C 
ATOM     21  O   UNL     1      44.815   7.414  12.352  0.00  0.00    +0.000 OA
ATOM     22  H   UNL     1      47.434   5.700  11.931  0.00  0.00    +0.000 HD
BRANCH  20  23
ATOM     23  C   UNL     1      44.924   5.148  11.732  0.00  0.00    +0.000 A 
ATOM     24  C   UNL     1      44.231   4.440  12.706  0.00  0.00    +0.000 A 
ATOM     25  S   UNL     1      43.567   2.975  12.146  0.00  0.00    +0.000 S 
ATOM     26  C   UNL     1      44.225   3.206  10.593  0.00  0.00    +0.000 A 
ATOM     27  N   UNL     1      44.045   2.280   9.611  0.00  0.00    +0.000 NA
ATOM     28  C   UNL     1      44.624   2.571   8.493  0.00  0.00    +0.000 A 
ATOM     29  N   UNL     1      45.355   3.710   8.265  0.00  0.00    +0.000 N 
ATOM     30  C   UNL     1      45.538   4.683   9.217  0.00  0.00    +0.000 A 
ATOM     31  O   UNL     1      46.162   5.712   8.963  0.00  0.00    +0.000 OA
ATOM     32  C   UNL     1      44.921   4.396  10.498  0.00  0.00    +0.000 A 
ATOM     33  H   UNL     1      45.767   3.884   7.361  0.00  0.00    +0.000 HD
ENDBRANCH  20  23
ENDBRANCH  18  19
ENDBRANCH   4  18
TORSDOF 7
ENDMDL
MODEL 5
REMARK VINA RESULT:    -7.418      2.323      2.849
REMARK INTER + INTRA:         -11.345
REMARK INTER:                 -10.266
REMARK INTRA:                  -1.079
REMARK UNBOUND:                -0.891
REMARK  Name = 
REMARK  8 active torsions:
REMARK  status: ('A' for Active; 'I' for Inactive)
REMARK    1  A    between atoms: C_1  and  C_2
REMARK    2  A    between atoms: C_6  and  C_7
REMARK    3  A    between atoms: C_7  and  N_8
REMARK    4  A    between atoms: N_8  and  C_9
REMARK    5  A    between atoms: C_9  and  C_10
REMARK    6  A    between atoms: C_13  and  C_14
REMARK    7  A    between atoms: C_14  and  N_15
REMARK    8  A    between atoms: C_16  and  C_18
REMARK                            x       y       z     vdW  Elec       q    Type
REMARK                         _______ _______ _______ _____ _____    ______ ____
ROOT
ATOM      1  C   UNL     1      45.036   5.110  12.964  0.00  0.00    +0.000 A 
ATOM      2  C   UNL     1      44.907   6.456  12.583  0.00  0.00    +0.000 A 
ATOM      3  C   UNL     1      46.023   7.294  12.523  0.00  0.00    +0.000 A 
ATOM      4  C   UNL     1      47.295   6.806  12.844  0.00  0.00    +0.000 A 
ATOM      5  C   UNL     1      47.419   5.478  13.268  0.00  0.00    +0.000 A 
ATOM      6  C   UNL     1      46.304   4.634  13.319  0.00  0.00    +0.000 A 
ENDROOT
BRANCH   1   7
ATOM      7  C   UNL     1      43.826   4.200  12.992  0.00  0.00    +0.000 C 
BRANCH   7   8
ATOM      8  N   UNL     1      44.133   2.904  12.398  0.00  0.00    +0.000 NA
ATOM      9  H   UNL     1      45.136   2.815  12.240  0.00  0.00    +0.000 HD
BRANCH   8  10
ATOM     10  C   UNL     1      43.474   2.723  11.094  0.00  0.00    +0.000 C 
BRANCH  10  16
ATOM     11  C   UNL     1      46.565   0.974   7.753  0.00  0.00    +0.000 C 
ATOM     12  C   UNL     1      45.895   2.166   8.360  0.00  0.00    +0.000 A 
ATOM     13  C   UNL     1      46.158   3.445   7.912  0.00  0.00    +0.000 A 
ATOM     14  C   UNL     1      45.477   4.462   8.541  0.00  0.00    +0.000 A 
ATOM     15  N   UNL     1      44.601   4.264   9.543  0.00  0.00    +0.000 NA
ATOM     16  C   UNL     1      44.418   2.981   9.930  0.00  0.00    +0.000 A 
ATOM     17  N   UNL     1      45.026   1.918   9.363  0.00  0.00    +0.000 NA
ENDBRANCH  10  16
ENDBRANCH   8  10
ENDBRANCH   7   8
ENDBRANCH   1   7
BRANCH   4  18
ATOM     18  C   UNL     1      48.511   7.695  12.774  0.00  0.00    +0.000 C 
BRANCH  18  19
ATOM     19  N   UNL     1      49.567   7.193  13.617  0.00  0.00    +0.000 N 
ATOM     20  C   UNL     1      49.722   7.627  14.909  0.00  0.00    +0.000 C 
ATOM     21  O   UNL     1      48.954   8.432  15.425  0.00  0.00    +0.000 OA
ATOM     22  H   UNL     1      50.344   6.742  13.148  0.00  0.00    +0.000 HD
BRANCH  20  23
ATOM     23  C   UNL     1      50.817   7.016  15.667  0.00  0.00    +0.000 A 
ATOM     24  C   UNL     1      52.126   7.434  15.458  0.00  0.00    +0.000 A 
ATOM     25  S   UNL     1      53.261   6.659  16.463  0.00  0.00    +0.000 S 
ATOM     26  C   UNL     1      52.053   5.696  17.180  0.00  0.00    +0.000 A 
ATOM     27  N   UNL     1      52.364   4.775  18.132  0.00  0.00    +0.000 NA
ATOM     28  C   UNL     1      51.353   4.097  18.567  0.00  0.00    +0.000 A 
ATOM     29  N   UNL     1      50.058   4.267  18.145  0.00  0.00    +0.000 N 
ATOM     30  C   UNL     1      49.695   5.204  17.209  0.00  0.00    +0.000 A 
ATOM     31  O   UNL     1      48.518   5.359  16.888  0.00  0.00    +0.000 OA
ATOM     32  C   UNL     1      50.798   5.982  16.676  0.00  0.00    +0.000 A 
ATOM     33  H   UNL     1      49.313   3.715  18.539  0.00  0.00    +0.000 HD
ENDBRANCH  20  23
ENDBRANCH  18  19
ENDBRANCH   4  18
TORSDOF 7
ENDMDL
MODEL 6
REMARK VINA RESULT:    -7.061      3.651      9.085
REMARK INTER + INTRA:         -10.841
REMARK INTER:                  -9.595
REMARK INTRA:                  -1.246
REMARK UNBOUND:                -0.891
REMARK  Name = 
REMARK  8 active torsions:
REMARK  status: ('A' for Active; 'I' for Inactive)
REMARK    1  A    between atoms: C_1  and  C_2
REMARK    2  A    between atoms: C_6  and  C_7
REMARK    3  A    between atoms: C_7  and  N_8
REMARK    4  A    between atoms: N_8  and  C_9
REMARK    5  A    between atoms: C_9  and  C_10
REMARK    6  A    between atoms: C_13  and  C_14
REMARK    7  A    between atoms: C_14  and  N_15
REMARK    8  A    between atoms: C_16  and  C_18
REMARK                            x       y       z     vdW  Elec       q    Type
REMARK                         _______ _______ _______ _____ _____    ______ ____
ROOT
ATOM      1  C   UNL     1      50.509   7.813  14.746  0.00  0.00    +0.000 A 
ATOM      2  C   UNL     1      50.855   8.016  13.400  0.00  0.00    +0.000 A 
ATOM      3  C   UNL     1      49.874   8.059  12.406  0.00  0.00    +0.000 A 
ATOM      4  C   UNL     1      48.523   7.899  12.735  0.00  0.00    +0.000 A 
ATOM      5  C   UNL     1      48.180   7.651  14.069  0.00  0.00    +0.000 A 
ATOM      6  C   UNL     1      49.160   7.618  15.067  0.00  0.00    +0.000 A 
ENDROOT
BRANCH   1   7
ATOM      7  C   UNL     1      51.575   7.804  15.821  0.00  0.00    +0.000 C 
BRANCH   7   8
ATOM      8  N   UNL     1      52.010   6.443  16.114  0.00  0.00    +0.000 NA
ATOM      9  H   UNL     1      51.662   5.799  15.404  0.00  0.00    +0.000 HD
BRANCH   8  10
ATOM     10  C   UNL     1      51.504   5.968  17.413  0.00  0.00    +0.000 C 
BRANCH  10  16
ATOM     11  C   UNL     1      47.161   3.814  16.886  0.00  0.00    +0.000 C 
ATOM     12  C   UNL     1      48.641   3.662  17.052  0.00  0.00    +0.000 A 
ATOM     13  C   UNL     1      49.232   2.418  17.129  0.00  0.00    +0.000 A 
ATOM     14  C   UNL     1      50.601   2.402  17.274  0.00  0.00    +0.000 A 
ATOM     15  N   UNL     1      51.354   3.514  17.347  0.00  0.00    +0.000 NA
ATOM     16  C   UNL     1      50.690   4.690  17.282  0.00  0.00    +0.000 A 
ATOM     17  N   UNL     1      49.355   4.805  17.123  0.00  0.00    +0.000 NA
ENDBRANCH  10  16
ENDBRANCH   8  10
ENDBRANCH   7   8
ENDBRANCH   1   7
BRANCH   4  18
ATOM     18  C   UNL     1      47.452   7.953  11.675  0.00  0.00    +0.000 C 
BRANCH  18  19
ATOM     19  N   UNL     1      46.781   6.683  11.555  0.00  0.00    +0.000 N 
ATOM     20  C   UNL     1      45.416   6.580  11.651  0.00  0.00    +0.000 C 
ATOM     21  O   UNL     1      44.696   7.560  11.806  0.00  0.00    +0.000 OA
ATOM     22  H   UNL     1      47.351   5.855  11.686  0.00  0.00    +0.000 HD
BRANCH  20  23
ATOM     23  C   UNL     1      44.857   5.236  11.482  0.00  0.00    +0.000 A 
ATOM     24  C   UNL     1      44.160   4.637  12.524  0.00  0.00    +0.000 A 
ATOM     25  S   UNL     1      43.532   3.102  12.134  0.00  0.00    +0.000 S 
ATOM     26  C   UNL     1      44.215   3.157  10.575  0.00  0.00    +0.000 A 
ATOM     27  N   UNL     1      44.069   2.117   9.709  0.00  0.00    +0.000 NA
ATOM     28  C   UNL     1      44.663   2.283   8.573  0.00  0.00    +0.000 A 
ATOM     29  N   UNL     1      45.377   3.401   8.221  0.00  0.00    +0.000 N 
ATOM     30  C   UNL     1      45.525   4.485   9.051  0.00  0.00    +0.000 A 
ATOM     31  O   UNL     1      46.135   5.488   8.685  0.00  0.00    +0.000 OA
ATOM     32  C   UNL     1      44.890   4.342  10.348  0.00  0.00    +0.000 A 
ATOM     33  H   UNL     1      45.802   3.473   7.309  0.00  0.00    +0.000 HD
ENDBRANCH  20  23
ENDBRANCH  18  19
ENDBRANCH   4  18
TORSDOF 7
ENDMDL
MODEL 7
REMARK VINA RESULT:    -6.426      5.354      8.656
REMARK INTER + INTRA:          -9.947
REMARK INTER:                  -9.052
REMARK INTRA:                  -0.895
REMARK UNBOUND:                -0.891
REMARK  Name = 
REMARK  8 active torsions:
REMARK  status: ('A' for Active; 'I' for Inactive)
REMARK    1  A    between atoms: C_1  and  C_2
REMARK    2  A    between atoms: C_6  and  C_7
REMARK    3  A    between atoms: C_7  and  N_8
REMARK    4  A    between atoms: N_8  and  C_9
REMARK    5  A    between atoms: C_9  and  C_10
REMARK    6  A    between atoms: C_13  and  C_14
REMARK    7  A    between atoms: C_14  and  N_15
REMARK    8  A    between atoms: C_16  and  C_18
REMARK                            x       y       z     vdW  Elec       q    Type
REMARK                         _______ _______ _______ _____ _____    ______ ____
ROOT
ATOM      1  C   UNL     1      50.308   8.734  11.595  0.00  0.00    +0.000 A 
ATOM      2  C   UNL     1      49.871   7.442  11.931  0.00  0.00    +0.000 A 
ATOM      3  C   UNL     1      48.545   7.209  12.306  0.00  0.00    +0.000 A 
ATOM      4  C   UNL     1      47.625   8.263  12.352  0.00  0.00    +0.000 A 
ATOM      5  C   UNL     1      48.070   9.557  12.060  0.00  0.00    +0.000 A 
ATOM      6  C   UNL     1      49.394   9.791  11.676  0.00  0.00    +0.000 A 
ENDROOT
BRANCH   1   7
ATOM      7  C   UNL     1      51.738   8.971  11.156  0.00  0.00    +0.000 C 
BRANCH   7   8
ATOM      8  N   UNL     1      52.534   7.755  11.289  0.00  0.00    +0.000 NA
ATOM      9  H   UNL     1      52.755   7.582  12.269  0.00  0.00    +0.000 HD
BRANCH   8  10
ATOM     10  C   UNL     1      53.815   7.852  10.569  0.00  0.00    +0.000 C 
BRANCH  10  16
ATOM     11  C   UNL     1      53.260   4.605   6.973  0.00  0.00    +0.000 C 
ATOM     12  C   UNL     1      53.420   6.038   7.375  0.00  0.00    +0.000 A 
ATOM     13  C   UNL     1      53.472   7.047   6.435  0.00  0.00    +0.000 A 
ATOM     14  C   UNL     1      53.614   8.326   6.923  0.00  0.00    +0.000 A 
ATOM     15  N   UNL     1      53.705   8.617   8.234  0.00  0.00    +0.000 NA
ATOM     16  C   UNL     1      53.663   7.566   9.082  0.00  0.00    +0.000 A 
ATOM     17  N   UNL     1      53.510   6.281   8.700  0.00  0.00    +0.000 NA
ENDBRANCH  10  16
ENDBRANCH   8  10
ENDBRANCH   7   8
ENDBRANCH   1   7
BRANCH   4  18
ATOM     18  C   UNL     1      46.188   8.025  12.743  0.00  0.00    +0.000 C 
BRANCH  18  19
ATOM     19  N   UNL     1      45.778   6.685  12.409  0.00  0.00    +0.000 N 
ATOM     20  C   UNL     1      44.674   6.445  11.629  0.00  0.00    +0.000 C 
ATOM     21  O   UNL     1      44.005   7.352  11.147  0.00  0.00    +0.000 OA
ATOM     22  H   UNL     1      46.145   5.941  12.991  0.00  0.00    +0.000 HD
BRANCH  20  23
ATOM     23  C   UNL     1      44.383   5.038  11.340  0.00  0.00    +0.000 A 
ATOM     24  C   UNL     1      43.625   4.288  12.232  0.00  0.00    +0.000 A 
ATOM     25  S   UNL     1      43.336   2.693  11.711  0.00  0.00    +0.000 S 
ATOM     26  C   UNL     1      44.257   2.928  10.298  0.00  0.00    +0.000 A 
ATOM     27  N   UNL     1      44.436   1.919   9.402  0.00  0.00    +0.000 NA
ATOM     28  C   UNL     1      45.180   2.229   8.392  0.00  0.00    +0.000 A 
ATOM     29  N   UNL     1      45.751   3.461   8.192  0.00  0.00    +0.000 N 
ATOM     30  C   UNL     1      45.573   4.516   9.054  0.00  0.00    +0.000 A 
ATOM     31  O   UNL     1      46.062   5.619   8.819  0.00  0.00    +0.000 OA
ATOM     32  C   UNL     1      44.757   4.214  10.215  0.00  0.00    +0.000 A 
ATOM     33  H   UNL     1      46.308   3.642   7.371  0.00  0.00    +0.000 HD
ENDBRANCH  20  23
ENDBRANCH  18  19
ENDBRANCH   4  18
TORSDOF 7
ENDMDL
MODEL 8
REMARK VINA RESULT:    -6.307      5.490      8.361
REMARK INTER + INTRA:          -9.779
REMARK INTER:                  -8.968
REMARK INTRA:                  -0.811
REMARK UNBOUND:                -0.891
REMARK  Name = 
REMARK  8 active torsions:
REMARK  status: ('A' for Active; 'I' for Inactive)
REMARK    1  A    between atoms: C_1  and  C_2
REMARK    2  A    between atoms: C_6  and  C_7
REMARK    3  A    between atoms: C_7  and  N_8
REMARK    4  A    between atoms: N_8  and  C_9
REMARK    5  A    between atoms: C_9  and  C_10
REMARK    6  A    between atoms: C_13  and  C_14
REMARK    7  A    between atoms: C_14  and  N_15
REMARK    8  A    between atoms: C_16  and  C_18
REMARK                            x       y       z     vdW  Elec       q    Type
REMARK                         _______ _______ _______ _____ _____    ______ ____
ROOT
ATOM      1  C   UNL     1      46.306   7.220  12.424  0.00  0.00    +0.000 A 
ATOM      2  C   UNL     1      46.774   8.502  12.091  0.00  0.00    +0.000 A 
ATOM      3  C   UNL     1      48.144   8.778  12.052  0.00  0.00    +0.000 A 
ATOM      4  C   UNL     1      49.077   7.778  12.345  0.00  0.00    +0.000 A 
ATOM      5  C   UNL     1      48.613   6.512  12.721  0.00  0.00    +0.000 A 
ATOM      6  C   UNL     1      47.243   6.231  12.751  0.00  0.00    +0.000 A 
ENDROOT
BRANCH   1   7
ATOM      7  C   UNL     1      44.822   6.921  12.429  0.00  0.00    +0.000 C 
BRANCH   7   8
ATOM      8  N   UNL     1      44.565   5.541  12.032  0.00  0.00    +0.000 NA
ATOM      9  H   UNL     1      45.437   5.015  11.996  0.00  0.00    +0.000 HD
BRANCH   8  10
ATOM     10  C   UNL     1      43.955   5.456  10.694  0.00  0.00    +0.000 C 
BRANCH  10  16
ATOM     11  C   UNL     1      46.703   3.914   6.973  0.00  0.00    +0.000 C 
ATOM     12  C   UNL     1      45.796   3.564   8.110  0.00  0.00    +0.000 A 
ATOM     13  C   UNL     1      45.448   2.256   8.376  0.00  0.00    +0.000 A 
ATOM     14  C   UNL     1      44.614   2.054   9.451  0.00  0.00    +0.000 A 
ATOM     15  N   UNL     1      44.138   3.049  10.221  0.00  0.00    +0.000 NA
ATOM     16  C   UNL     1      44.515   4.301   9.878  0.00  0.00    +0.000 A 
ATOM     17  N   UNL     1      45.341   4.596   8.853  0.00  0.00    +0.000 NA
ENDBRANCH  10  16
ENDBRANCH   8  10
ENDBRANCH   7   8
ENDBRANCH   1   7
BRANCH   4  18
ATOM     18  C   UNL     1      50.558   8.057  12.296  0.00  0.00    +0.000 C 
BRANCH  18  19
ATOM     19  N   UNL     1      51.150   7.495  11.108  0.00  0.00    +0.000 N 
ATOM     20  C   UNL     1      52.311   7.998  10.578  0.00  0.00    +0.000 C 
ATOM     21  O   UNL     1      52.923   8.922  11.103  0.00  0.00    +0.000 OA
ATOM     22  H   UNL     1      50.546   6.925  10.528  0.00  0.00    +0.000 HD
BRANCH  20  23
ATOM     23  C   UNL     1      52.822   7.318   9.385  0.00  0.00    +0.000 A 
ATOM     24  C   UNL     1      53.181   5.977   9.449  0.00  0.00    +0.000 A 
ATOM     25  S   UNL     1      53.699   5.335   7.959  0.00  0.00    +0.000 S 
ATOM     26  C   UNL     1      53.515   6.839   7.183  0.00  0.00    +0.000 A 
ATOM     27  N   UNL     1      53.819   6.990   5.865  0.00  0.00    +0.000 NA
ATOM     28  C   UNL     1      53.659   8.190   5.415  0.00  0.00    +0.000 A 
ATOM     29  N   UNL     1      53.209   9.251   6.162  0.00  0.00    +0.000 N 
ATOM     30  C   UNL     1      52.862   9.138   7.486  0.00  0.00    +0.000 A 
ATOM     31  O   UNL     1      52.420  10.099   8.112  0.00  0.00    +0.000 OA
ATOM     32  C   UNL     1      53.040   7.811   8.044  0.00  0.00    +0.000 A 
ATOM     33  H   UNL     1      53.090  10.160   5.743  0.00  0.00    +0.000 HD
ENDBRANCH  20  23
ENDBRANCH  18  19
ENDBRANCH   4  18
TORSDOF 7
ENDMDL
MODEL 9
REMARK VINA RESULT:    -6.229      3.755      8.319
REMARK INTER + INTRA:          -9.670
REMARK INTER:                  -8.054
REMARK INTRA:                  -1.616
REMARK UNBOUND:                -0.891
REMARK  Name = 
REMARK  8 active torsions:
REMARK  status: ('A' for Active; 'I' for Inactive)
REMARK    1  A    between atoms: C_1  and  C_2
REMARK    2  A    between atoms: C_6  and  C_7
REMARK    3  A    between atoms: C_7  and  N_8
REMARK    4  A    between atoms: N_8  and  C_9
REMARK    5  A    between atoms: C_9  and  C_10
REMARK    6  A    between atoms: C_13  and  C_14
REMARK    7  A    between atoms: C_14  and  N_15
REMARK    8  A    between atoms: C_16  and  C_18
REMARK                            x       y       z     vdW  Elec       q    Type
REMARK                         _______ _______ _______ _____ _____    ______ ____
ROOT
ATOM      1  C   UNL     1      50.476   8.217  16.522  0.00  0.00    +0.000 A 
ATOM      2  C   UNL     1      50.616   7.316  15.453  0.00  0.00    +0.000 A 
ATOM      3  C   UNL     1      50.010   7.569  14.219  0.00  0.00    +0.000 A 
ATOM      4  C   UNL     1      49.252   8.729  14.025  0.00  0.00    +0.000 A 
ATOM      5  C   UNL     1      49.075   9.605  15.103  0.00  0.00    +0.000 A 
ATOM      6  C   UNL     1      49.687   9.358  16.336  0.00  0.00    +0.000 A 
ENDROOT
BRANCH   1   7
ATOM      7  C   UNL     1      51.164   7.951  17.845  0.00  0.00    +0.000 C 
BRANCH   7   8
ATOM      8  N   UNL     1      50.540   6.834  18.544  0.00  0.00    +0.000 NA
ATOM      9  H   UNL     1      50.358   7.081  19.516  0.00  0.00    +0.000 HD
BRANCH   8  10
ATOM     10  C   UNL     1      51.400   5.639  18.556  0.00  0.00    +0.000 C 
BRANCH  10  16
ATOM     11  C   UNL     1      47.306   3.530  16.954  0.00  0.00    +0.000 C 
ATOM     12  C   UNL     1      48.774   3.412  17.219  0.00  0.00    +0.000 A 
ATOM     13  C   UNL     1      49.456   2.237  16.977  0.00  0.00    +0.000 A 
ATOM     14  C   UNL     1      50.805   2.248  17.252  0.00  0.00    +0.000 A 
ATOM     15  N   UNL     1      51.457   3.321  17.736  0.00  0.00    +0.000 NA
ATOM     16  C   UNL     1      50.707   4.423  17.961  0.00  0.00    +0.000 A 
ATOM     17  N   UNL     1      49.385   4.512  17.707  0.00  0.00    +0.000 NA
ENDBRANCH  10  16
ENDBRANCH   8  10
ENDBRANCH   7   8
ENDBRANCH   1   7
BRANCH   4  18
ATOM     18  C   UNL     1      48.603   9.022  12.697  0.00  0.00    +0.000 C 
BRANCH  18  19
ATOM     19  N   UNL     1      47.661   7.989  12.344  0.00  0.00    +0.000 N 
ATOM     20  C   UNL     1      46.352   8.040  12.752  0.00  0.00    +0.000 C 
ATOM     21  O   UNL     1      45.907   8.979  13.401  0.00  0.00    +0.000 OA
ATOM     22  H   UNL     1      48.053   7.103  12.044  0.00  0.00    +0.000 HD
BRANCH  20  23
ATOM     23  C   UNL     1      45.494   6.942  12.301  0.00  0.00    +0.000 A 
ATOM     24  C   UNL     1      44.361   7.211  11.542  0.00  0.00    +0.000 A 
ATOM     25  S   UNL     1      43.513   5.815  11.058  0.00  0.00    +0.000 S 
ATOM     26  C   UNL     1      44.599   4.800  11.889  0.00  0.00    +0.000 A 
ATOM     27  N   UNL     1      44.428   3.450  11.899  0.00  0.00    +0.000 NA
ATOM     28  C   UNL     1      45.308   2.806  12.592  0.00  0.00    +0.000 A 
ATOM     29  N   UNL     1      46.353   3.391  13.264  0.00  0.00    +0.000 N 
ATOM     30  C   UNL     1      46.580   4.746  13.257  0.00  0.00    +0.000 A 
ATOM     31  O   UNL     1      47.552   5.230  13.834  0.00  0.00    +0.000 OA
ATOM     32  C   UNL     1      45.608   5.516  12.506  0.00  0.00    +0.000 A 
ATOM     33  H   UNL     1      47.016   2.827  13.773  0.00  0.00    +0.000 HD
ENDBRANCH  20  23
ENDBRANCH  18  19
ENDBRANCH   4  18
TORSDOF 7
ENDMDL
