MODEL 1
REMARK VINA RESULT:    -8.702      0.000      0.000
REMARK INTER + INTRA:         -13.461
REMARK INTER:                 -12.263
REMARK INTRA:                  -1.199
REMARK UNBOUND:                -1.199
REMARK  Name = 
REMARK  8 active torsions:
REMARK  status: ('A' for Active; 'I' for Inactive)
REMARK    1  A    between atoms: C_1  and  C_2
REMARK    2  A    between atoms: C_2  and  C_3
REMARK    3  A    between atoms: C_2  and  C_14
REMARK    4  A    between atoms: C_3  and  O_4
REMARK    5  A    between atoms: O_4  and  C_5
REMARK    6  A    between atoms: C_8  and  C_9
REMARK    7  A    between atoms: C_18  and  O_19
REMARK    8  A    between atoms: O_19  and  C_20
REMARK                            x       y       z     vdW  Elec       q    Type
REMARK                         _______ _______ _______ _____ _____    ______ ____
ROOT
ATOM      1  C   UNL     1      42.827   5.325  12.462  0.00  0.00    +0.000 C 
ATOM      2  C   UNL     1      44.027   4.424  12.572  0.00  0.00    +0.000 C 
ENDROOT
BRANCH   2   3
ATOM      3  C   UNL     1      45.306   5.096  12.884  0.00  0.00    +0.000 A 
ATOM      4  C   UNL     1      45.805   6.024  11.960  0.00  0.00    +0.000 A 
ATOM      5  C   UNL     1      47.098   6.520  12.079  0.00  0.00    +0.000 A 
ATOM      6  C   UNL     1      47.892   6.131  13.153  0.00  0.00    +0.000 A 
ATOM      7  C   UNL     1      47.372   5.313  14.161  0.00  0.00    +0.000 A 
ATOM      8  C   UNL     1      46.084   4.779  14.012  0.00  0.00    +0.000 A 
BRANCH   7   9
ATOM      9  O   UNL     1      48.071   4.956  15.291  0.00  0.00    +0.000 OA
BRANCH   9  10
ATOM     10  C   UNL     1      47.349   4.098  16.192  0.00  0.00    +0.000 C 
ATOM     11  C   UNL     1      47.276   4.703  17.579  0.00  0.00    +0.000 C 
ATOM     12  C   UNL     1      48.495   4.152  18.285  0.00  0.00    +0.000 C 
ATOM     13  O   UNL     1      48.850   2.922  17.653  0.00  0.00    +0.000 OA
ATOM     14  C   UNL     1      48.110   2.800  16.431  0.00  0.00    +0.000 C 
ENDBRANCH   9  10
ENDBRANCH   7   9
ENDBRANCH   2   3
BRANCH   2  15
ATOM     15  C   UNL     1      44.004   3.141  11.798  0.00  0.00    +0.000 C 
BRANCH  15  16
ATOM     16  O   UNL     1      43.571   3.395  10.456  0.00  0.00    +0.000 OA
BRANCH  16  17
ATOM     17  C   UNL     1      44.513   3.218   9.477  0.00  0.00    +0.000 A 
ATOM     18  C   UNL     1      45.037   4.228   8.670  0.00  0.00    +0.000 A 
ATOM     19  C   UNL     1      46.006   3.933   7.709  0.00  0.00    +0.000 A 
ATOM     20  C   UNL     1      46.471   2.624   7.545  0.00  0.00    +0.000 A 
ATOM     21  C   UNL     1      45.935   1.603   8.336  0.00  0.00    +0.000 A 
ATOM     22  C   UNL     1      44.961   1.904   9.299  0.00  0.00    +0.000 A 
BRANCH  20  23
ATOM     23  C   UNL     1      47.511   2.384   6.511  0.00  0.00    +0.000 C 
ATOM     24  N   UNL     1      47.510   3.190   5.412  0.00  0.00    +0.000 N 
ATOM     25  O   UNL     1      48.316   1.464   6.615  0.00  0.00    +0.000 OA
ATOM     26  H   UNL     1      46.728   3.776   5.168  0.00  0.00    +0.000 HD
ATOM     27  H   UNL     1      48.142   2.918   4.669  0.00  0.00    +0.000 HD
ENDBRANCH  20  23
ENDBRANCH  16  17
ENDBRANCH  15  16
ENDBRANCH   2  15
TORSDOF 7
ENDMDL
MODEL 2
REMARK VINA RESULT:    -7.830      1.552      2.004
REMARK INTER + INTRA:         -12.233
REMARK INTER:                 -11.166
REMARK INTRA:                  -1.067
REMARK UNBOUND:                -1.199
REMARK  Name = 
REMARK  8 active torsions:
REMARK  status: ('A' for Active; 'I' for Inactive)
REMARK    1  A    between atoms: C_1  and  C_2
REMARK    2  A    between atoms: C_2  and  C_3
REMARK    3  A    between atoms: C_2  and  C_14
REMARK    4  A    between atoms: C_3  and  O_4
REMARK    5  A    between atoms: O_4  and  C_5
REMARK    6  A    between atoms: C_8  and  C_9
REMARK    7  A    between atoms: C_18  and  O_19
REMARK    8  A    between atoms: O_19  and  C_20
REMARK                            x       y       z     vdW  Elec       q    Type
REMARK                         _______ _______ _______ _____ _____    ______ ____
ROOT
ATOM      1  C   UNL     1      43.997   4.255  12.930  0.00  0.00    +0.000 C 
ATOM      2  C   UNL     1      44.788   5.052  11.929  0.00  0.00    +0.000 C 
ENDROOT
BRANCH   2   3
ATOM      3  C   UNL     1      46.005   5.708  12.451  0.00  0.00    +0.000 A 
ATOM      4  C   UNL     1      46.610   6.698  11.665  0.00  0.00    +0.000 A 
ATOM      5  C   UNL     1      47.870   7.191  11.986  0.00  0.00    +0.000 A 
ATOM      6  C   UNL     1      48.520   6.734  13.129  0.00  0.00    +0.000 A 
ATOM      7  C   UNL     1      47.882   5.848  14.002  0.00  0.00    +0.000 A 
ATOM      8  C   UNL     1      46.633   5.320  13.649  0.00  0.00    +0.000 A 
BRANCH   7   9
ATOM      9  O   UNL     1      48.431   5.420  15.189  0.00  0.00    +0.000 OA
BRANCH   9  10
ATOM     10  C   UNL     1      48.865   6.479  16.061  0.00  0.00    +0.000 C 
ATOM     11  C   UNL     1      50.376   6.515  16.164  0.00  0.00    +0.000 C 
ATOM     12  C   UNL     1      50.686   5.628  17.348  0.00  0.00    +0.000 C 
ATOM     13  O   UNL     1      49.539   5.614  18.199  0.00  0.00    +0.000 OA
ATOM     14  C   UNL     1      48.437   6.206  17.498  0.00  0.00    +0.000 C 
ENDBRANCH   9  10
ENDBRANCH   7   9
ENDBRANCH   2   3
BRANCH   2  15
ATOM     15  C   UNL     1      44.047   5.628  10.761  0.00  0.00    +0.000 C 
BRANCH  15  16
ATOM     16  O   UNL     1      43.514   4.569   9.957  0.00  0.00    +0.000 OA
BRANCH  16  17
ATOM     17  C   UNL     1      44.432   3.783   9.313  0.00  0.00    +0.000 A 
ATOM     18  C   UNL     1      44.550   2.400   9.454  0.00  0.00    +0.000 A 
ATOM     19  C   UNL     1      45.518   1.697   8.735  0.00  0.00    +0.000 A 
ATOM     20  C   UNL     1      46.379   2.365   7.858  0.00  0.00    +0.000 A 
ATOM     21  C   UNL     1      46.280   3.754   7.728  0.00  0.00    +0.000 A 
ATOM     22  C   UNL     1      45.307   4.456   8.453  0.00  0.00    +0.000 A 
BRANCH  20  23
ATOM     23  C   UNL     1      47.378   1.553   7.116  0.00  0.00    +0.000 C 
ATOM     24  N   UNL     1      48.413   2.211   6.520  0.00  0.00    +0.000 N 
ATOM     25  O   UNL     1      47.257   0.338   7.001  0.00  0.00    +0.000 OA
ATOM     26  H   UNL     1      48.412   3.207   6.374  0.00  0.00    +0.000 HD
ATOM     27  H   UNL     1      48.999   1.648   5.916  0.00  0.00    +0.000 HD
ENDBRANCH  20  23
ENDBRANCH  16  17
ENDBRANCH  15  16
ENDBRANCH   2  15
TORSDOF 7
ENDMDL
MODEL 3
REMARK VINA RESULT:    -7.829      2.329      4.200
REMARK INTER + INTRA:         -12.231
REMARK INTER:                 -11.001
REMARK INTRA:                  -1.230
REMARK UNBOUND:                -1.199
REMARK  Name = 
REMARK  8 active torsions:
REMARK  status: ('A' for Active; 'I' for Inactive)
REMARK    1  A    between atoms: C_1  and  C_2
REMARK    2  A    between atoms: C_2  and  C_3
REMARK    3  A    between atoms: C_2  and  C_14
REMARK    4  A    between atoms: C_3  and  O_4
REMARK    5  A    between atoms: O_4  and  C_5
REMARK    6  A    between atoms: C_8  and  C_9
REMARK    7  A    between atoms: C_18  and  O_19
REMARK    8  A    between atoms: O_19  and  C_20
REMARK                            x       y       z     vdW  Elec       q    Type
REMARK                         _______ _______ _______ _____ _____    ______ ____
ROOT
ATOM      1  C   UNL     1      43.277   4.396  13.252  0.00  0.00    +0.000 C 
ATOM      2  C   UNL     1      44.263   4.542  12.125  0.00  0.00    +0.000 C 
ENDROOT
BRANCH   2   3
ATOM      3  C   UNL     1      45.589   5.074  12.500  0.00  0.00    +0.000 A 
ATOM      4  C   UNL     1      46.199   4.568  13.657  0.00  0.00    +0.000 A 
ATOM      5  C   UNL     1      47.330   5.177  14.188  0.00  0.00    +0.000 A 
ATOM      6  C   UNL     1      47.895   6.272  13.541  0.00  0.00    +0.000 A 
ATOM      7  C   UNL     1      47.386   6.712  12.316  0.00  0.00    +0.000 A 
ATOM      8  C   UNL     1      46.219   6.124  11.809  0.00  0.00    +0.000 A 
BRANCH   7   9
ATOM      9  O   UNL     1      47.943   7.734  11.582  0.00  0.00    +0.000 OA
BRANCH   9  10
ATOM     10  C   UNL     1      48.243   8.919  12.341  0.00  0.00    +0.000 C 
ATOM     11  C   UNL     1      47.000   9.757  12.557  0.00  0.00    +0.000 C 
ATOM     12  C   UNL     1      46.988  10.707  11.381  0.00  0.00    +0.000 C 
ATOM     13  O   UNL     1      48.332  10.855  10.922  0.00  0.00    +0.000 OA
ATOM     14  C   UNL     1      49.146   9.855  11.549  0.00  0.00    +0.000 C 
ENDBRANCH   9  10
ENDBRANCH   7   9
ENDBRANCH   2   3
BRANCH   2  15
ATOM     15  C   UNL     1      43.713   4.753  10.747  0.00  0.00    +0.000 C 
BRANCH  15  16
ATOM     16  O   UNL     1      43.541   3.488  10.097  0.00  0.00    +0.000 OA
BRANCH  16  17
ATOM     17  C   UNL     1      44.535   3.117   9.231  0.00  0.00    +0.000 A 
ATOM     18  C   UNL     1      45.087   1.839   9.138  0.00  0.00    +0.000 A 
ATOM     19  C   UNL     1      46.091   1.570   8.206  0.00  0.00    +0.000 A 
ATOM     20  C   UNL     1      46.554   2.573   7.348  0.00  0.00    +0.000 A 
ATOM     21  C   UNL     1      46.020   3.861   7.450  0.00  0.00    +0.000 A 
ATOM     22  C   UNL     1      45.012   4.127   8.389  0.00  0.00    +0.000 A 
BRANCH  20  23
ATOM     23  C   UNL     1      47.616   2.214   6.373  0.00  0.00    +0.000 C 
ATOM     24  N   UNL     1      47.812   3.049   5.313  0.00  0.00    +0.000 N 
ATOM     25  O   UNL     1      48.267   1.180   6.487  0.00  0.00    +0.000 OA
ATOM     26  H   UNL     1      47.145   3.755   5.047  0.00  0.00    +0.000 HD
ATOM     27  H   UNL     1      48.448   2.710   4.601  0.00  0.00    +0.000 HD
ENDBRANCH  20  23
ENDBRANCH  16  17
ENDBRANCH  15  16
ENDBRANCH   2  15
TORSDOF 7
ENDMDL
MODEL 4
REMARK VINA RESULT:    -7.774      3.412      5.317
REMARK INTER + INTRA:         -12.153
REMARK INTER:                 -10.982
REMARK INTRA:                  -1.172
REMARK UNBOUND:                -1.199
REMARK  Name = 
REMARK  8 active torsions:
REMARK  status: ('A' for Active; 'I' for Inactive)
REMARK    1  A    between atoms: C_1  and  C_2
REMARK    2  A    between atoms: C_2  and  C_3
REMARK    3  A    between atoms: C_2  and  C_14
REMARK    4  A    between atoms: C_3  and  O_4
REMARK    5  A    between atoms: O_4  and  C_5
REMARK    6  A    between atoms: C_8  and  C_9
REMARK    7  A    between atoms: C_18  and  O_19
REMARK    8  A    between atoms: O_19  and  C_20
REMARK                            x       y       z     vdW  Elec       q    Type
REMARK                         _______ _______ _______ _____ _____    ______ ____
ROOT
ATOM      1  C   UNL     1      45.995   3.975  12.735  0.00  0.00    +0.000 C 
ATOM      2  C   UNL     1      45.309   4.966  11.834  0.00  0.00    +0.000 C 
ENDROOT
BRANCH   2   3
ATOM      3  C   UNL     1      45.826   6.349  11.894  0.00  0.00    +0.000 A 
ATOM      4  C   UNL     1      47.214   6.537  11.857  0.00  0.00    +0.000 A 
ATOM      5  C   UNL     1      47.772   7.779  12.135  0.00  0.00    +0.000 A 
ATOM      6  C   UNL     1      46.944   8.864  12.405  0.00  0.00    +0.000 A 
ATOM      7  C   UNL     1      45.554   8.736  12.316  0.00  0.00    +0.000 A 
ATOM      8  C   UNL     1      44.998   7.471  12.082  0.00  0.00    +0.000 A 
BRANCH   7   9
ATOM      9  O   UNL     1      44.679   9.783  12.490  0.00  0.00    +0.000 OA
BRANCH   9  10
ATOM     10  C   UNL     1      44.143  10.321  11.267  0.00  0.00    +0.000 C 
ATOM     11  C   UNL     1      44.973  11.489  10.777  0.00  0.00    +0.000 C 
ATOM     12  C   UNL     1      44.317  12.697  11.407  0.00  0.00    +0.000 C 
ATOM     13  O   UNL     1      42.953  12.368  11.672  0.00  0.00    +0.000 OA
ATOM     14  C   UNL     1      42.779  10.954  11.506  0.00  0.00    +0.000 C 
ENDBRANCH   9  10
ENDBRANCH   7   9
ENDBRANCH   2   3
BRANCH   2  15
ATOM     15  C   UNL     1      43.883   4.695  11.464  0.00  0.00    +0.000 C 
BRANCH  15  16
ATOM     16  O   UNL     1      43.728   4.780  10.042  0.00  0.00    +0.000 OA
BRANCH  16  17
ATOM     17  C   UNL     1      44.602   4.033   9.297  0.00  0.00    +0.000 A 
ATOM     18  C   UNL     1      45.537   4.547   8.398  0.00  0.00    +0.000 A 
ATOM     19  C   UNL     1      46.389   3.690   7.699  0.00  0.00    +0.000 A 
ATOM     20  C   UNL     1      46.324   2.306   7.893  0.00  0.00    +0.000 A 
ATOM     21  C   UNL     1      45.376   1.784   8.778  0.00  0.00    +0.000 A 
ATOM     22  C   UNL     1      44.521   2.648   9.476  0.00  0.00    +0.000 A 
BRANCH  20  23
ATOM     23  C   UNL     1      47.268   1.455   7.125  0.00  0.00    +0.000 C 
ATOM     24  N   UNL     1      48.383   2.048   6.611  0.00  0.00    +0.000 N 
ATOM     25  O   UNL     1      47.036   0.268   6.917  0.00  0.00    +0.000 OA
ATOM     26  H   UNL     1      48.482   3.048   6.539  0.00  0.00    +0.000 HD
ATOM     27  H   UNL     1      48.935   1.475   5.985  0.00  0.00    +0.000 HD
ENDBRANCH  20  23
ENDBRANCH  16  17
ENDBRANCH  15  16
ENDBRANCH   2  15
TORSDOF 7
ENDMDL
MODEL 5
REMARK VINA RESULT:    -7.275      2.447      3.109
REMARK INTER + INTRA:         -11.451
REMARK INTER:                 -10.444
REMARK INTRA:                  -1.007
REMARK UNBOUND:                -1.199
REMARK  Name = 
REMARK  8 active torsions:
REMARK  status: ('A' for Active; 'I' for Inactive)
REMARK    1  A    between atoms: C_1  and  C_2
REMARK    2  A    between atoms: C_2  and  C_3
REMARK    3  A    between atoms: C_2  and  C_14
REMARK    4  A    between atoms: C_3  and  O_4
REMARK    5  A    between atoms: O_4  and  C_5
REMARK    6  A    between atoms: C_8  and  C_9
REMARK    7  A    between atoms: C_18  and  O_19
REMARK    8  A    between atoms: O_19  and  C_20
REMARK                            x       y       z     vdW  Elec       q    Type
REMARK                         _______ _______ _______ _____ _____    ______ ____
ROOT
ATOM      1  C   UNL     1      45.836   3.322  12.765  0.00  0.00    +0.000 C 
ATOM      2  C   UNL     1      45.096   4.320  11.916  0.00  0.00    +0.000 C 
ENDROOT
BRANCH   2   3
ATOM      3  C   UNL     1      45.470   5.735  12.121  0.00  0.00    +0.000 A 
ATOM      4  C   UNL     1      44.546   6.721  11.748  0.00  0.00    +0.000 A 
ATOM      5  C   UNL     1      44.916   8.060  11.702  0.00  0.00    +0.000 A 
ATOM      6  C   UNL     1      46.203   8.436  12.075  0.00  0.00    +0.000 A 
ATOM      7  C   UNL     1      47.100   7.490  12.578  0.00  0.00    +0.000 A 
ATOM      8  C   UNL     1      46.738   6.135  12.579  0.00  0.00    +0.000 A 
BRANCH   7   9
ATOM      9  O   UNL     1      48.357   7.802  13.042  0.00  0.00    +0.000 OA
BRANCH   9  10
ATOM     10  C   UNL     1      48.471   7.841  14.476  0.00  0.00    +0.000 C 
ATOM     11  C   UNL     1      48.470   9.268  14.983  0.00  0.00    +0.000 C 
ATOM     12  C   UNL     1      49.934   9.648  15.017  0.00  0.00    +0.000 C 
ATOM     13  O   UNL     1      50.696   8.447  15.150  0.00  0.00    +0.000 OA
ATOM     14  C   UNL     1      49.832   7.325  14.926  0.00  0.00    +0.000 C 
ENDBRANCH   9  10
ENDBRANCH   7   9
ENDBRANCH   2   3
BRANCH   2  15
ATOM     15  C   UNL     1      43.721   3.948  11.450  0.00  0.00    +0.000 C 
BRANCH  15  16
ATOM     16  O   UNL     1      43.609   4.185  10.041  0.00  0.00    +0.000 OA
BRANCH  16  17
ATOM     17  C   UNL     1      44.585   3.629   9.258  0.00  0.00    +0.000 A 
ATOM     18  C   UNL     1      44.906   2.272   9.213  0.00  0.00    +0.000 A 
ATOM     19  C   UNL     1      45.915   1.812   8.365  0.00  0.00    +0.000 A 
ATOM     20  C   UNL     1      46.614   2.702   7.543  0.00  0.00    +0.000 A 
ATOM     21  C   UNL     1      46.312   4.066   7.598  0.00  0.00    +0.000 A 
ATOM     22  C   UNL     1      45.299   4.523   8.453  0.00  0.00    +0.000 A 
BRANCH  20  23
ATOM     23  C   UNL     1      47.668   2.144   6.657  0.00  0.00    +0.000 C 
ATOM     24  N   UNL     1      48.002   2.855   5.542  0.00  0.00    +0.000 N 
ATOM     25  O   UNL     1      48.190   1.058   6.888  0.00  0.00    +0.000 OA
ATOM     26  H   UNL     1      47.432   3.604   5.184  0.00  0.00    +0.000 HD
ATOM     27  H   UNL     1      48.623   2.387   4.894  0.00  0.00    +0.000 HD
ENDBRANCH  20  23
ENDBRANCH  16  17
ENDBRANCH  15  16
ENDBRANCH   2  15
TORSDOF 7
ENDMDL
MODEL 6
REMARK VINA RESULT:    -6.862      3.002      7.714
REMARK INTER + INTRA:         -10.868
REMARK INTER:                 -10.155
REMARK INTRA:                  -0.713
REMARK UNBOUND:                -1.199
REMARK  Name = 
REMARK  8 active torsions:
REMARK  status: ('A' for Active; 'I' for Inactive)
REMARK    1  A    between atoms: C_1  and  C_2
REMARK    2  A    between atoms: C_2  and  C_3
REMARK    3  A    between atoms: C_2  and  C_14
REMARK    4  A    between atoms: C_3  and  O_4
REMARK    5  A    between atoms: O_4  and  C_5
REMARK    6  A    between atoms: C_8  and  C_9
REMARK    7  A    between atoms: C_18  and  O_19
REMARK    8  A    between atoms: O_19  and  C_20
REMARK                            x       y       z     vdW  Elec       q    Type
REMARK                         _______ _______ _______ _____ _____    ______ ____
ROOT
ATOM      1  C   UNL     1      45.582   8.490  12.641  0.00  0.00    +0.000 C 
ATOM      2  C   UNL     1      46.152   7.374  11.808  0.00  0.00    +0.000 C 
ENDROOT
BRANCH   2   3
ATOM      3  C   UNL     1      45.193   6.328  11.397  0.00  0.00    +0.000 A 
ATOM      4  C   UNL     1      43.824   6.591  11.553  0.00  0.00    +0.000 A 
ATOM      5  C   UNL     1      42.884   5.578  11.402  0.00  0.00    +0.000 A 
ATOM      6  C   UNL     1      43.298   4.299  11.043  0.00  0.00    +0.000 A 
ATOM      7  C   UNL     1      44.641   4.043  10.751  0.00  0.00    +0.000 A 
ATOM      8  C   UNL     1      45.590   5.055  10.950  0.00  0.00    +0.000 A 
BRANCH   7   9
ATOM      9  O   UNL     1      45.107   2.825  10.312  0.00  0.00    +0.000 OA
BRANCH   9  10
ATOM     10  C   UNL     1      44.669   2.460   8.990  0.00  0.00    +0.000 C 
ATOM     11  C   UNL     1      45.446   1.269   8.469  0.00  0.00    +0.000 C 
ATOM     12  C   UNL     1      46.617   1.885   7.736  0.00  0.00    +0.000 C 
ATOM     13  O   UNL     1      46.236   3.199   7.326  0.00  0.00    +0.000 OA
ATOM     14  C   UNL     1      45.012   3.552   7.985  0.00  0.00    +0.000 C 
ENDBRANCH   9  10
ENDBRANCH   7   9
ENDBRANCH   2   3
BRANCH   2  15
ATOM     15  C   UNL     1      47.607   7.058  11.976  0.00  0.00    +0.000 C 
BRANCH  15  16
ATOM     16  O   UNL     1      48.023   7.393  13.306  0.00  0.00    +0.000 OA
BRANCH  16  17
ATOM     17  C   UNL     1      47.872   6.410  14.248  0.00  0.00    +0.000 A 
ATOM     18  C   UNL     1      47.088   5.265  14.100  0.00  0.00    +0.000 A 
ATOM     19  C   UNL     1      47.017   4.321  15.126  0.00  0.00    +0.000 A 
ATOM     20  C   UNL     1      47.735   4.502  16.313  0.00  0.00    +0.000 A 
ATOM     21  C   UNL     1      48.506   5.658  16.476  0.00  0.00    +0.000 A 
ATOM     22  C   UNL     1      48.572   6.604  15.444  0.00  0.00    +0.000 A 
BRANCH  20  23
ATOM     23  C   UNL     1      47.623   3.452  17.357  0.00  0.00    +0.000 C 
ATOM     24  N   UNL     1      48.710   3.226  18.149  0.00  0.00    +0.000 N 
ATOM     25  O   UNL     1      46.606   2.776  17.478  0.00  0.00    +0.000 OA
ATOM     26  H   UNL     1      49.629   3.570  17.921  0.00  0.00    +0.000 HD
ATOM     27  H   UNL     1      48.647   2.419  18.758  0.00  0.00    +0.000 HD
ENDBRANCH  20  23
ENDBRANCH  16  17
ENDBRANCH  15  16
ENDBRANCH   2  15
TORSDOF 7
ENDMDL
MODEL 7
REMARK VINA RESULT:    -6.451      3.879      8.087
REMARK INTER + INTRA:         -10.290
REMARK INTER:                  -9.227
REMARK INTRA:                  -1.063
REMARK UNBOUND:                -1.199
REMARK  Name = 
REMARK  8 active torsions:
REMARK  status: ('A' for Active; 'I' for Inactive)
REMARK    1  A    between atoms: C_1  and  C_2
REMARK    2  A    between atoms: C_2  and  C_3
REMARK    3  A    between atoms: C_2  and  C_14
REMARK    4  A    between atoms: C_3  and  O_4
REMARK    5  A    between atoms: O_4  and  C_5
REMARK    6  A    between atoms: C_8  and  C_9
REMARK    7  A    between atoms: C_18  and  O_19
REMARK    8  A    between atoms: O_19  and  C_20
REMARK                            x       y       z     vdW  Elec       q    Type
REMARK                         _______ _______ _______ _____ _____    ______ ____
ROOT
ATOM      1  C   UNL     1      50.454   7.546  14.649  0.00  0.00    +0.000 C 
ATOM      2  C   UNL     1      49.128   7.004  15.109  0.00  0.00    +0.000 C 
ENDROOT
BRANCH   2   3
ATOM      3  C   UNL     1      48.017   7.124  14.142  0.00  0.00    +0.000 A 
ATOM      4  C   UNL     1      47.509   8.403  13.877  0.00  0.00    +0.000 A 
ATOM      5  C   UNL     1      46.330   8.565  13.159  0.00  0.00    +0.000 A 
ATOM      6  C   UNL     1      45.669   7.449  12.654  0.00  0.00    +0.000 A 
ATOM      7  C   UNL     1      46.224   6.174  12.789  0.00  0.00    +0.000 A 
ATOM      8  C   UNL     1      47.388   6.012  13.553  0.00  0.00    +0.000 A 
BRANCH   7   9
ATOM      9  O   UNL     1      45.669   5.038  12.246  0.00  0.00    +0.000 OA
BRANCH   9  10
ATOM     10  C   UNL     1      44.238   5.087  12.097  0.00  0.00    +0.000 C 
ATOM     11  C   UNL     1      43.563   4.055  12.976  0.00  0.00    +0.000 C 
ATOM     12  C   UNL     1      43.453   2.833  12.092  0.00  0.00    +0.000 C 
ATOM     13  O   UNL     1      43.449   3.274  10.733  0.00  0.00    +0.000 OA
ATOM     14  C   UNL     1      43.825   4.657  10.695  0.00  0.00    +0.000 C 
ENDBRANCH   9  10
ENDBRANCH   7   9
ENDBRANCH   2   3
BRANCH   2  15
ATOM     15  C   UNL     1      48.862   6.982  16.584  0.00  0.00    +0.000 C 
BRANCH  15  16
ATOM     16  O   UNL     1      48.352   5.699  16.964  0.00  0.00    +0.000 OA
BRANCH  16  17
ATOM     17  C   UNL     1      49.282   4.706  17.125  0.00  0.00    +0.000 A 
ATOM     18  C   UNL     1      50.624   4.903  17.450  0.00  0.00    +0.000 A 
ATOM     19  C   UNL     1      51.482   3.813  17.601  0.00  0.00    +0.000 A 
ATOM     20  C   UNL     1      51.009   2.506  17.438  0.00  0.00    +0.000 A 
ATOM     21  C   UNL     1      49.670   2.302  17.092  0.00  0.00    +0.000 A 
ATOM     22  C   UNL     1      48.812   3.401  16.939  0.00  0.00    +0.000 A 
BRANCH  20  23
ATOM     23  C   UNL     1      51.974   1.392  17.625  0.00  0.00    +0.000 C 
ATOM     24  N   UNL     1      51.494   0.213  18.112  0.00  0.00    +0.000 N 
ATOM     25  O   UNL     1      53.171   1.536  17.395  0.00  0.00    +0.000 OA
ATOM     26  H   UNL     1      50.589   0.132  18.548  0.00  0.00    +0.000 HD
ATOM     27  H   UNL     1      52.194  -0.479  18.353  0.00  0.00    +0.000 HD
ENDBRANCH  20  23
ENDBRANCH  16  17
ENDBRANCH  15  16
ENDBRANCH   2  15
TORSDOF 7
ENDMDL
MODEL 8
REMARK VINA RESULT:    -6.337      2.754      4.582
REMARK INTER + INTRA:         -10.129
REMARK INTER:                  -8.798
REMARK INTRA:                  -1.330
REMARK UNBOUND:                -1.199
REMARK  Name = 
REMARK  8 active torsions:
REMARK  status: ('A' for Active; 'I' for Inactive)
REMARK    1  A    between atoms: C_1  and  C_2
REMARK    2  A    between atoms: C_2  and  C_3
REMARK    3  A    between atoms: C_2  and  C_14
REMARK    4  A    between atoms: C_3  and  O_4
REMARK    5  A    between atoms: O_4  and  C_5
REMARK    6  A    between atoms: C_8  and  C_9
REMARK    7  A    between atoms: C_18  and  O_19
REMARK    8  A    between atoms: O_19  and  C_20
REMARK                            x       y       z     vdW  Elec       q    Type
REMARK                         _______ _______ _______ _____ _____    ______ ____
ROOT
ATOM      1  C   UNL     1      49.321   8.031  11.864  0.00  0.00    +0.000 C 
ATOM      2  C   UNL     1      48.227   8.494  12.788  0.00  0.00    +0.000 C 
ENDROOT
BRANCH   2   3
ATOM      3  C   UNL     1      48.374   8.095  14.203  0.00  0.00    +0.000 A 
ATOM      4  C   UNL     1      48.414   9.107  15.173  0.00  0.00    +0.000 A 
ATOM      5  C   UNL     1      48.774   8.821  16.484  0.00  0.00    +0.000 A 
ATOM      6  C   UNL     1      49.051   7.509  16.855  0.00  0.00    +0.000 A 
ATOM      7  C   UNL     1      48.887   6.464  15.941  0.00  0.00    +0.000 A 
ATOM      8  C   UNL     1      48.570   6.763  14.609  0.00  0.00    +0.000 A 
BRANCH   7   9
ATOM      9  O   UNL     1      49.064   5.137  16.261  0.00  0.00    +0.000 OA
BRANCH   9  10
ATOM     10  C   UNL     1      48.557   4.763  17.555  0.00  0.00    +0.000 C 
ATOM     11  C   UNL     1      49.024   3.376  17.942  0.00  0.00    +0.000 C 
ATOM     12  C   UNL     1      47.934   2.462  17.429  0.00  0.00    +0.000 C 
ATOM     13  O   UNL     1      46.726   3.221  17.352  0.00  0.00    +0.000 OA
ATOM     14  C   UNL     1      47.042   4.609  17.519  0.00  0.00    +0.000 C 
ENDBRANCH   9  10
ENDBRANCH   7   9
ENDBRANCH   2   3
BRANCH   2  15
ATOM     15  C   UNL     1      46.872   8.729  12.193  0.00  0.00    +0.000 C 
BRANCH  15  16
ATOM     16  O   UNL     1      45.886   7.997  12.932  0.00  0.00    +0.000 OA
BRANCH  16  17
ATOM     17  C   UNL     1      45.486   6.807  12.384  0.00  0.00    +0.000 A 
ATOM     18  C   UNL     1      45.438   6.525  11.019  0.00  0.00    +0.000 A 
ATOM     19  C   UNL     1      45.023   5.269  10.572  0.00  0.00    +0.000 A 
ATOM     20  C   UNL     1      44.656   4.273  11.484  0.00  0.00    +0.000 A 
ATOM     21  C   UNL     1      44.682   4.557  12.853  0.00  0.00    +0.000 A 
ATOM     22  C   UNL     1      45.098   5.820  13.297  0.00  0.00    +0.000 A 
BRANCH  20  23
ATOM     23  C   UNL     1      44.236   2.957  10.939  0.00  0.00    +0.000 C 
ATOM     24  N   UNL     1      45.018   2.391   9.976  0.00  0.00    +0.000 N 
ATOM     25  O   UNL     1      43.199   2.414  11.305  0.00  0.00    +0.000 OA
ATOM     26  H   UNL     1      45.721   2.907   9.472  0.00  0.00    +0.000 HD
ATOM     27  H   UNL     1      44.636   1.563   9.533  0.00  0.00    +0.000 HD
ENDBRANCH  20  23
ENDBRANCH  16  17
ENDBRANCH  15  16
ENDBRANCH   2  15
TORSDOF 7
ENDMDL
MODEL 9
REMARK VINA RESULT:    -6.142      3.831      7.806
REMARK INTER + INTRA:          -9.855
REMARK INTER:                  -8.681
REMARK INTRA:                  -1.173
REMARK UNBOUND:                -1.199
REMARK  Name = 
REMARK  8 active torsions:
REMARK  status: ('A' for Active; 'I' for Inactive)
REMARK    1  A    between atoms: C_1  and  C_2
REMARK    2  A    between atoms: C_2  and  C_3
REMARK    3  A    between atoms: C_2  and  C_14
REMARK    4  A    between atoms: C_3  and  O_4
REMARK    5  A    between atoms: O_4  and  C_5
REMARK    6  A    between atoms: C_8  and  C_9
REMARK    7  A    between atoms: C_18  and  O_19
REMARK    8  A    between atoms: O_19  and  C_20
REMARK                            x       y       z     vdW  Elec       q    Type
REMARK                         _______ _______ _______ _____ _____    ______ ____
ROOT
ATOM      1  C   UNL     1      49.822   9.563  11.844  0.00  0.00    +0.000 C 
ATOM      2  C   UNL     1      49.299   8.241  12.338  0.00  0.00    +0.000 C 
ENDROOT
BRANCH   2   3
ATOM      3  C   UNL     1      47.848   8.021  12.162  0.00  0.00    +0.000 A 
ATOM      4  C   UNL     1      46.980   9.084  12.448  0.00  0.00    +0.000 A 
ATOM      5  C   UNL     1      45.607   8.882  12.522  0.00  0.00    +0.000 A 
ATOM      6  C   UNL     1      45.080   7.620  12.263  0.00  0.00    +0.000 A 
ATOM      7  C   UNL     1      45.909   6.576  11.844  0.00  0.00    +0.000 A 
ATOM      8  C   UNL     1      47.297   6.774  11.816  0.00  0.00    +0.000 A 
BRANCH   7   9
ATOM      9  O   UNL     1      45.447   5.329  11.492  0.00  0.00    +0.000 OA
BRANCH   9  10
ATOM     10  C   UNL     1      44.015   5.193  11.524  0.00  0.00    +0.000 C 
ATOM     11  C   UNL     1      43.569   4.405  12.737  0.00  0.00    +0.000 C 
ATOM     12  C   UNL     1      43.534   2.972  12.253  0.00  0.00    +0.000 C 
ATOM     13  O   UNL     1      43.341   2.991  10.838  0.00  0.00    +0.000 OA
ATOM     14  C   UNL     1      43.527   4.332  10.365  0.00  0.00    +0.000 C 
ENDBRANCH   9  10
ENDBRANCH   7   9
ENDBRANCH   2   3
BRANCH   2  15
ATOM     15  C   UNL     1      50.047   7.572  13.450  0.00  0.00    +0.000 C 
BRANCH  15  16
ATOM     16  O   UNL     1      49.436   7.895  14.706  0.00  0.00    +0.000 OA
BRANCH  16  17
ATOM     17  C   UNL     1      49.078   6.831  15.491  0.00  0.00    +0.000 A 
ATOM     18  C   UNL     1      49.716   6.451  16.672  0.00  0.00    +0.000 A 
ATOM     19  C   UNL     1      49.256   5.353  17.401  0.00  0.00    +0.000 A 
ATOM     20  C   UNL     1      48.147   4.621  16.964  0.00  0.00    +0.000 A 
ATOM     21  C   UNL     1      47.516   4.984  15.770  0.00  0.00    +0.000 A 
ATOM     22  C   UNL     1      47.982   6.087  15.040  0.00  0.00    +0.000 A 
BRANCH  20  23
ATOM     23  C   UNL     1      47.704   3.472  17.794  0.00  0.00    +0.000 C 
ATOM     24  N   UNL     1      48.445   3.164  18.897  0.00  0.00    +0.000 N 
ATOM     25  O   UNL     1      46.735   2.789  17.479  0.00  0.00    +0.000 OA
ATOM     26  H   UNL     1      49.373   3.526  19.047  0.00  0.00    +0.000 HD
ATOM     27  H   UNL     1      48.197   2.300  19.364  0.00  0.00    +0.000 HD
ENDBRANCH  20  23
ENDBRANCH  16  17
ENDBRANCH  15  16
ENDBRANCH   2  15
TORSDOF 7
ENDMDL
