MODEL 1
REMARK VINA RESULT:    -8.701      0.000      0.000
REMARK INTER + INTRA:         -13.176
REMARK INTER:                 -12.262
REMARK INTRA:                  -0.915
REMARK UNBOUND:                -0.915
REMARK  Name = 
REMARK  7 active torsions:
REMARK  status: ('A' for Active; 'I' for Inactive)
REMARK    1  A    between atoms: C_2  and  C_20
REMARK    2  A    between atoms: N_3  and  C_4
REMARK    3  A    between atoms: C_4  and  C_5
REMARK    4  A    between atoms: C_8  and  C_9
REMARK    5  A    between atoms: C_9  and  N_10
REMARK    6  A    between atoms: N_10  and  C_11
REMARK    7  A    between atoms: C_11  and  C_12
REMARK                            x       y       z     vdW  Elec       q    Type
REMARK                         _______ _______ _______ _____ _____    ______ ____
ROOT
ATOM      1  C   UNL     1      46.835   5.947  13.153  0.00  0.00    +0.000 A 
ATOM      2  C   UNL     1      45.855   5.055  13.606  0.00  0.00    +0.000 A 
ATOM      3  C   UNL     1      44.784   4.699  12.781  0.00  0.00    +0.000 A 
ATOM      4  C   UNL     1      44.670   5.223  11.486  0.00  0.00    +0.000 A 
ATOM      5  C   UNL     1      45.667   6.092  11.023  0.00  0.00    +0.000 A 
ATOM      6  C   UNL     1      46.740   6.447  11.847  0.00  0.00    +0.000 A 
ENDROOT
BRANCH   1   7
ATOM      7  C   UNL     1      47.957   6.375  14.057  0.00  0.00    +0.000 C 
BRANCH   7  10
ATOM      8  O   UNL     1      49.967   6.095  15.962  0.00  0.00    +0.000 OA
ATOM      9  C   UNL     1      48.803   5.904  16.303  0.00  0.00    +0.000 C 
ATOM     10  N   UNL     1      47.744   5.992  15.425  0.00  0.00    +0.000 N 
ATOM     11  H   UNL     1      46.812   5.853  15.804  0.00  0.00    +0.000 HD
BRANCH   9  12
ATOM     12  C   UNL     1      48.422   5.577  17.685  0.00  0.00    +0.000 A 
ATOM     13  N   UNL     1      48.321   4.298  18.122  0.00  0.00    +0.000 NA
ATOM     14  N   UNL     1      47.961   4.436  19.418  0.00  0.00    +0.000 N 
ATOM     15  C   UNL     1      47.811   5.728  19.822  0.00  0.00    +0.000 A 
ATOM     16  N   UNL     1      47.446   6.141  21.050  0.00  0.00    +0.000 NA
ATOM     17  C   UNL     1      47.374   7.491  21.143  0.00  0.00    +0.000 A 
ATOM     18  C   UNL     1      47.638   8.391  20.118  0.00  0.00    +0.000 A 
ATOM     19  C   UNL     1      48.016   7.902  18.867  0.00  0.00    +0.000 A 
ATOM     20  C   UNL     1      48.104   6.508  18.718  0.00  0.00    +0.000 A 
ATOM     21  H   UNL     1      47.827   3.609  19.986  0.00  0.00    +0.000 HD
ENDBRANCH   9  12
ENDBRANCH   7  10
ENDBRANCH   1   7
BRANCH   4  22
ATOM     22  C   UNL     1      43.494   4.852  10.610  0.00  0.00    +0.000 C 
BRANCH  22  23
ATOM     23  N   UNL     1      43.951   4.334   9.322  0.00  0.00    +0.000 NA
ATOM     24  H   UNL     1      44.710   4.919   8.975  0.00  0.00    +0.000 HD
BRANCH  23  25
ATOM     25  C   UNL     1      44.418   2.954   9.420  0.00  0.00    +0.000 C 
BRANCH  25  26
ATOM     26  C   UNL     1      45.494   2.678   8.395  0.00  0.00    +0.000 A 
ATOM     27  C   UNL     1      45.961   3.690   7.544  0.00  0.00    +0.000 A 
ATOM     28  C   UNL     1      46.963   3.422   6.606  0.00  0.00    +0.000 A 
ATOM     29  C   UNL     1      47.507   2.143   6.510  0.00  0.00    +0.000 A 
ATOM     30  C   UNL     1      47.052   1.129   7.349  0.00  0.00    +0.000 A 
ATOM     31  C   UNL     1      46.055   1.395   8.287  0.00  0.00    +0.000 A 
ENDBRANCH  25  26
ENDBRANCH  23  25
ENDBRANCH  22  23
ENDBRANCH   4  22
TORSDOF 7
ENDMDL
MODEL 2
REMARK VINA RESULT:    -8.306      1.812      2.454
REMARK INTER + INTRA:         -12.620
REMARK INTER:                 -11.519
REMARK INTRA:                  -1.100
REMARK UNBOUND:                -0.915
REMARK  Name = 
REMARK  7 active torsions:
REMARK  status: ('A' for Active; 'I' for Inactive)
REMARK    1  A    between atoms: C_2  and  C_20
REMARK    2  A    between atoms: N_3  and  C_4
REMARK    3  A    between atoms: C_4  and  C_5
REMARK    4  A    between atoms: C_8  and  C_9
REMARK    5  A    between atoms: C_9  and  N_10
REMARK    6  A    between atoms: N_10  and  C_11
REMARK    7  A    between atoms: C_11  and  C_12
REMARK                            x       y       z     vdW  Elec       q    Type
REMARK                         _______ _______ _______ _____ _____    ______ ____
ROOT
ATOM      1  C   UNL     1      46.821   6.348  12.408  0.00  0.00    +0.000 A 
ATOM      2  C   UNL     1      46.417   6.499  11.076  0.00  0.00    +0.000 A 
ATOM      3  C   UNL     1      45.363   5.736  10.564  0.00  0.00    +0.000 A 
ATOM      4  C   UNL     1      44.688   4.810  11.372  0.00  0.00    +0.000 A 
ATOM      5  C   UNL     1      45.074   4.682  12.713  0.00  0.00    +0.000 A 
ATOM      6  C   UNL     1      46.127   5.446  13.226  0.00  0.00    +0.000 A 
ENDROOT
BRANCH   1   7
ATOM      7  C   UNL     1      47.990   7.125  12.946  0.00  0.00    +0.000 C 
BRANCH   7  10
ATOM      8  O   UNL     1      48.411   8.550  15.300  0.00  0.00    +0.000 OA
ATOM      9  C   UNL     1      48.666   7.348  15.286  0.00  0.00    +0.000 C 
ATOM     10  N   UNL     1      48.517   6.567  14.160  0.00  0.00    +0.000 N 
ATOM     11  H   UNL     1      48.719   5.576  14.251  0.00  0.00    +0.000 HD
BRANCH   9  12
ATOM     12  C   UNL     1      49.143   6.622  16.472  0.00  0.00    +0.000 A 
ATOM     13  N   UNL     1      50.161   7.084  17.238  0.00  0.00    +0.000 NA
ATOM     14  N   UNL     1      50.277   6.144  18.204  0.00  0.00    +0.000 N 
ATOM     15  C   UNL     1      49.405   5.106  18.083  0.00  0.00    +0.000 A 
ATOM     16  N   UNL     1      49.319   4.038  18.897  0.00  0.00    +0.000 NA
ATOM     17  C   UNL     1      48.356   3.167  18.511  0.00  0.00    +0.000 A 
ATOM     18  C   UNL     1      47.522   3.314  17.409  0.00  0.00    +0.000 A 
ATOM     19  C   UNL     1      47.655   4.446  16.604  0.00  0.00    +0.000 A 
ATOM     20  C   UNL     1      48.642   5.380  16.961  0.00  0.00    +0.000 A 
ATOM     21  H   UNL     1      50.977   6.260  18.927  0.00  0.00    +0.000 HD
ENDBRANCH   9  12
ENDBRANCH   7  10
ENDBRANCH   1   7
BRANCH   4  22
ATOM     22  C   UNL     1      43.564   3.972  10.802  0.00  0.00    +0.000 C 
BRANCH  22  23
ATOM     23  N   UNL     1      43.879   3.542   9.442  0.00  0.00    +0.000 NA
ATOM     24  H   UNL     1      44.391   4.282   8.965  0.00  0.00    +0.000 HD
BRANCH  23  25
ATOM     25  C   UNL     1      44.679   2.320   9.425  0.00  0.00    +0.000 C 
BRANCH  25  26
ATOM     26  C   UNL     1      45.665   2.342   8.278  0.00  0.00    +0.000 A 
ATOM     27  C   UNL     1      45.829   3.486   7.485  0.00  0.00    +0.000 A 
ATOM     28  C   UNL     1      46.750   3.494   6.434  0.00  0.00    +0.000 A 
ATOM     29  C   UNL     1      47.514   2.360   6.165  0.00  0.00    +0.000 A 
ATOM     30  C   UNL     1      47.361   1.217   6.944  0.00  0.00    +0.000 A 
ATOM     31  C   UNL     1      46.444   1.208   7.996  0.00  0.00    +0.000 A 
ENDBRANCH  25  26
ENDBRANCH  23  25
ENDBRANCH  22  23
ENDBRANCH   4  22
TORSDOF 7
ENDMDL
MODEL 3
REMARK VINA RESULT:    -7.728      3.980      6.416
REMARK INTER + INTRA:         -11.805
REMARK INTER:                 -10.787
REMARK INTRA:                  -1.018
REMARK UNBOUND:                -0.915
REMARK  Name = 
REMARK  7 active torsions:
REMARK  status: ('A' for Active; 'I' for Inactive)
REMARK    1  A    between atoms: C_2  and  C_20
REMARK    2  A    between atoms: N_3  and  C_4
REMARK    3  A    between atoms: C_4  and  C_5
REMARK    4  A    between atoms: C_8  and  C_9
REMARK    5  A    between atoms: C_9  and  N_10
REMARK    6  A    between atoms: N_10  and  C_11
REMARK    7  A    between atoms: C_11  and  C_12
REMARK                            x       y       z     vdW  Elec       q    Type
REMARK                         _______ _______ _______ _____ _____    ______ ____
ROOT
ATOM      1  C   UNL     1      47.076   6.063  12.687  0.00  0.00    +0.000 A 
ATOM      2  C   UNL     1      46.708   6.538  11.422  0.00  0.00    +0.000 A 
ATOM      3  C   UNL     1      45.568   6.043  10.782  0.00  0.00    +0.000 A 
ATOM      4  C   UNL     1      44.768   5.067  11.394  0.00  0.00    +0.000 A 
ATOM      5  C   UNL     1      45.121   4.614  12.672  0.00  0.00    +0.000 A 
ATOM      6  C   UNL     1      46.260   5.111  13.313  0.00  0.00    +0.000 A 
ENDROOT
BRANCH   1   7
ATOM      7  C   UNL     1      48.331   6.553  13.353  0.00  0.00    +0.000 C 
BRANCH   7  10
ATOM      8  O   UNL     1      50.623   7.915  14.154  0.00  0.00    +0.000 OA
ATOM      9  C   UNL     1      50.225   8.061  13.001  0.00  0.00    +0.000 C 
ATOM     10  N   UNL     1      49.086   7.450  12.522  0.00  0.00    +0.000 N 
ATOM     11  H   UNL     1      48.853   7.600  11.545  0.00  0.00    +0.000 HD
BRANCH   9  12
ATOM     12  C   UNL     1      50.932   8.890  12.014  0.00  0.00    +0.000 A 
ATOM     13  N   UNL     1      50.990  10.240  12.115  0.00  0.00    +0.000 NA
ATOM     14  N   UNL     1      51.719  10.605  11.036  0.00  0.00    +0.000 N 
ATOM     15  C   UNL     1      52.111   9.566  10.249  0.00  0.00    +0.000 A 
ATOM     16  N   UNL     1      52.829   9.653   9.114  0.00  0.00    +0.000 NA
ATOM     17  C   UNL     1      53.055   8.443   8.548  0.00  0.00    +0.000 A 
ATOM     18  C   UNL     1      52.617   7.220   9.043  0.00  0.00    +0.000 A 
ATOM     19  C   UNL     1      51.880   7.193  10.228  0.00  0.00    +0.000 A 
ATOM     20  C   UNL     1      51.617   8.424  10.854  0.00  0.00    +0.000 A 
ATOM     21  H   UNL     1      51.919  11.585  10.882  0.00  0.00    +0.000 HD
ENDBRANCH   9  12
ENDBRANCH   7  10
ENDBRANCH   1   7
BRANCH   4  22
ATOM     22  C   UNL     1      43.550   4.519  10.683  0.00  0.00    +0.000 C 
BRANCH  22  23
ATOM     23  N   UNL     1      43.905   4.023   9.356  0.00  0.00    +0.000 NA
ATOM     24  H   UNL     1      44.575   4.660   8.927  0.00  0.00    +0.000 HD
BRANCH  23  25
ATOM     25  C   UNL     1      44.485   2.684   9.408  0.00  0.00    +0.000 C 
BRANCH  25  26
ATOM     26  C   UNL     1      45.554   2.522   8.350  0.00  0.00    +0.000 A 
ATOM     27  C   UNL     1      46.240   1.309   8.193  0.00  0.00    +0.000 A 
ATOM     28  C   UNL     1      47.219   1.171   7.206  0.00  0.00    +0.000 A 
ATOM     29  C   UNL     1      47.524   2.242   6.368  0.00  0.00    +0.000 A 
ATOM     30  C   UNL     1      46.851   3.452   6.513  0.00  0.00    +0.000 A 
ATOM     31  C   UNL     1      45.871   3.591   7.496  0.00  0.00    +0.000 A 
ENDBRANCH  25  26
ENDBRANCH  23  25
ENDBRANCH  22  23
ENDBRANCH   4  22
TORSDOF 7
ENDMDL
MODEL 4
REMARK VINA RESULT:    -7.555      3.085      9.411
REMARK INTER + INTRA:         -11.562
REMARK INTER:                 -10.427
REMARK INTRA:                  -1.135
REMARK UNBOUND:                -0.915
REMARK  Name = 
REMARK  7 active torsions:
REMARK  status: ('A' for Active; 'I' for Inactive)
REMARK    1  A    between atoms: C_2  and  C_20
REMARK    2  A    between atoms: N_3  and  C_4
REMARK    3  A    between atoms: C_4  and  C_5
REMARK    4  A    between atoms: C_8  and  C_9
REMARK    5  A    between atoms: C_9  and  N_10
REMARK    6  A    between atoms: N_10  and  C_11
REMARK    7  A    between atoms: C_11  and  C_12
REMARK                            x       y       z     vdW  Elec       q    Type
REMARK                         _______ _______ _______ _____ _____    ______ ____
ROOT
ATOM      1  C   UNL     1      46.384   7.191  12.444  0.00  0.00    +0.000 A 
ATOM      2  C   UNL     1      46.346   8.368  13.203  0.00  0.00    +0.000 A 
ATOM      3  C   UNL     1      47.387   8.678  14.083  0.00  0.00    +0.000 A 
ATOM      4  C   UNL     1      48.490   7.823  14.220  0.00  0.00    +0.000 A 
ATOM      5  C   UNL     1      48.541   6.662  13.438  0.00  0.00    +0.000 A 
ATOM      6  C   UNL     1      47.500   6.352  12.556  0.00  0.00    +0.000 A 
ENDROOT
BRANCH   1   7
ATOM      7  C   UNL     1      45.241   6.828  11.539  0.00  0.00    +0.000 C 
BRANCH   7  10
ATOM      8  O   UNL     1      43.178   5.401  10.330  0.00  0.00    +0.000 OA
ATOM      9  C   UNL     1      44.294   4.891  10.382  0.00  0.00    +0.000 C 
ATOM     10  N   UNL     1      45.369   5.508  10.985  0.00  0.00    +0.000 N 
ATOM     11  H   UNL     1      46.263   5.026  10.949  0.00  0.00    +0.000 HD
BRANCH   9  12
ATOM     12  C   UNL     1      44.597   3.577   9.795  0.00  0.00    +0.000 A 
ATOM     13  N   UNL     1      44.017   2.437  10.241  0.00  0.00    +0.000 NA
ATOM     14  N   UNL     1      44.553   1.481   9.449  0.00  0.00    +0.000 N 
ATOM     15  C   UNL     1      45.451   1.948   8.539  0.00  0.00    +0.000 A 
ATOM     16  N   UNL     1      46.137   1.211   7.646  0.00  0.00    +0.000 NA
ATOM     17  C   UNL     1      46.965   1.961   6.880  0.00  0.00    +0.000 A 
ATOM     18  C   UNL     1      47.125   3.339   6.966  0.00  0.00    +0.000 A 
ATOM     19  C   UNL     1      46.383   4.050   7.910  0.00  0.00    +0.000 A 
ATOM     20  C   UNL     1      45.510   3.317   8.731  0.00  0.00    +0.000 A 
ATOM     21  H   UNL     1      44.270   0.517   9.575  0.00  0.00    +0.000 HD
ENDBRANCH   9  12
ENDBRANCH   7  10
ENDBRANCH   1   7
BRANCH   4  22
ATOM     22  C   UNL     1      49.600   8.155  15.193  0.00  0.00    +0.000 C 
BRANCH  22  23
ATOM     23  N   UNL     1      50.317   6.947  15.592  0.00  0.00    +0.000 NA
ATOM     24  H   UNL     1      51.318   7.095  15.471  0.00  0.00    +0.000 HD
BRANCH  23  25
ATOM     25  C   UNL     1      50.052   6.585  16.982  0.00  0.00    +0.000 C 
BRANCH  25  26
ATOM     26  C   UNL     1      49.367   5.240  17.064  0.00  0.00    +0.000 A 
ATOM     27  C   UNL     1      50.056   4.101  17.503  0.00  0.00    +0.000 A 
ATOM     28  C   UNL     1      49.407   2.866  17.583  0.00  0.00    +0.000 A 
ATOM     29  C   UNL     1      48.065   2.756  17.225  0.00  0.00    +0.000 A 
ATOM     30  C   UNL     1      47.368   3.879  16.787  0.00  0.00    +0.000 A 
ATOM     31  C   UNL     1      48.014   5.114  16.710  0.00  0.00    +0.000 A 
ENDBRANCH  25  26
ENDBRANCH  23  25
ENDBRANCH  22  23
ENDBRANCH   4  22
TORSDOF 7
ENDMDL
MODEL 5
REMARK VINA RESULT:    -7.469      2.079      2.555
REMARK INTER + INTRA:         -11.440
REMARK INTER:                 -10.551
REMARK INTRA:                  -0.888
REMARK UNBOUND:                -0.915
REMARK  Name = 
REMARK  7 active torsions:
REMARK  status: ('A' for Active; 'I' for Inactive)
REMARK    1  A    between atoms: C_2  and  C_20
REMARK    2  A    between atoms: N_3  and  C_4
REMARK    3  A    between atoms: C_4  and  C_5
REMARK    4  A    between atoms: C_8  and  C_9
REMARK    5  A    between atoms: C_9  and  N_10
REMARK    6  A    between atoms: N_10  and  C_11
REMARK    7  A    between atoms: C_11  and  C_12
REMARK                            x       y       z     vdW  Elec       q    Type
REMARK                         _______ _______ _______ _____ _____    ______ ____
ROOT
ATOM      1  C   UNL     1      46.893   4.824  14.048  0.00  0.00    +0.000 A 
ATOM      2  C   UNL     1      45.915   4.026  13.442  0.00  0.00    +0.000 A 
ATOM      3  C   UNL     1      45.336   4.411  12.229  0.00  0.00    +0.000 A 
ATOM      4  C   UNL     1      45.725   5.599  11.593  0.00  0.00    +0.000 A 
ATOM      5  C   UNL     1      46.726   6.380  12.185  0.00  0.00    +0.000 A 
ATOM      6  C   UNL     1      47.306   5.994  13.398  0.00  0.00    +0.000 A 
ENDROOT
BRANCH   1   7
ATOM      7  C   UNL     1      47.477   4.440  15.379  0.00  0.00    +0.000 C 
BRANCH   7  10
ATOM      8  O   UNL     1      49.888   5.092  16.608  0.00  0.00    +0.000 OA
ATOM      9  C   UNL     1      48.920   5.827  16.786  0.00  0.00    +0.000 C 
ATOM     10  N   UNL     1      47.680   5.571  16.242  0.00  0.00    +0.000 N 
ATOM     11  H   UNL     1      46.946   6.253  16.414  0.00  0.00    +0.000 HD
BRANCH   9  12
ATOM     12  C   UNL     1      48.993   7.059  17.585  0.00  0.00    +0.000 A 
ATOM     13  N   UNL     1      49.057   7.038  18.938  0.00  0.00    +0.000 NA
ATOM     14  N   UNL     1      49.114   8.347  19.270  0.00  0.00    +0.000 N 
ATOM     15  C   UNL     1      49.070   9.196  18.207  0.00  0.00    +0.000 A 
ATOM     16  N   UNL     1      49.096  10.541  18.259  0.00  0.00    +0.000 NA
ATOM     17  C   UNL     1      49.029  11.110  17.031  0.00  0.00    +0.000 A 
ATOM     18  C   UNL     1      48.944  10.428  15.823  0.00  0.00    +0.000 A 
ATOM     19  C   UNL     1      48.926   9.032  15.833  0.00  0.00    +0.000 A 
ATOM     20  C   UNL     1      48.992   8.393  17.083  0.00  0.00    +0.000 A 
ATOM     21  H   UNL     1      49.179   8.609  20.246  0.00  0.00    +0.000 HD
ENDBRANCH   9  12
ENDBRANCH   7  10
ENDBRANCH   1   7
BRANCH   4  22
ATOM     22  C   UNL     1      45.076   6.020  10.293  0.00  0.00    +0.000 C 
BRANCH  22  23
ATOM     23  N   UNL     1      45.705   5.348   9.159  0.00  0.00    +0.000 NA
ATOM     24  H   UNL     1      46.613   4.984   9.446  0.00  0.00    +0.000 HD
BRANCH  23  25
ATOM     25  C   UNL     1      44.888   4.249   8.651  0.00  0.00    +0.000 C 
BRANCH  25  26
ATOM     26  C   UNL     1      45.749   3.218   7.957  0.00  0.00    +0.000 A 
ATOM     27  C   UNL     1      46.496   3.547   6.816  0.00  0.00    +0.000 A 
ATOM     28  C   UNL     1      47.294   2.586   6.189  0.00  0.00    +0.000 A 
ATOM     29  C   UNL     1      47.353   1.288   6.694  0.00  0.00    +0.000 A 
ATOM     30  C   UNL     1      46.617   0.948   7.826  0.00  0.00    +0.000 A 
ATOM     31  C   UNL     1      45.822   1.907   8.455  0.00  0.00    +0.000 A 
ENDBRANCH  25  26
ENDBRANCH  23  25
ENDBRANCH  22  23
ENDBRANCH   4  22
TORSDOF 7
ENDMDL
MODEL 6
REMARK VINA RESULT:    -7.343      1.586      2.418
REMARK INTER + INTRA:         -11.262
REMARK INTER:                 -10.565
REMARK INTRA:                  -0.697
REMARK UNBOUND:                -0.915
REMARK  Name = 
REMARK  7 active torsions:
REMARK  status: ('A' for Active; 'I' for Inactive)
REMARK    1  A    between atoms: C_2  and  C_20
REMARK    2  A    between atoms: N_3  and  C_4
REMARK    3  A    between atoms: C_4  and  C_5
REMARK    4  A    between atoms: C_8  and  C_9
REMARK    5  A    between atoms: C_9  and  N_10
REMARK    6  A    between atoms: N_10  and  C_11
REMARK    7  A    between atoms: C_11  and  C_12
REMARK                            x       y       z     vdW  Elec       q    Type
REMARK                         _______ _______ _______ _____ _____    ______ ____
ROOT
ATOM      1  C   UNL     1      47.789   6.341  13.595  0.00  0.00    +0.000 A 
ATOM      2  C   UNL     1      47.505   6.967  12.375  0.00  0.00    +0.000 A 
ATOM      3  C   UNL     1      46.533   6.442  11.518  0.00  0.00    +0.000 A 
ATOM      4  C   UNL     1      45.823   5.283  11.863  0.00  0.00    +0.000 A 
ATOM      5  C   UNL     1      46.088   4.675  13.097  0.00  0.00    +0.000 A 
ATOM      6  C   UNL     1      47.058   5.202  13.956  0.00  0.00    +0.000 A 
ENDROOT
BRANCH   1   7
ATOM      7  C   UNL     1      48.872   6.872  14.493  0.00  0.00    +0.000 C 
BRANCH   7  10
ATOM      8  O   UNL     1      50.030   8.777  16.160  0.00  0.00    +0.000 OA
ATOM      9  C   UNL     1      49.014   8.201  16.542  0.00  0.00    +0.000 C 
ATOM     10  N   UNL     1      48.387   7.225  15.799  0.00  0.00    +0.000 N 
ATOM     11  H   UNL     1      47.532   6.828  16.178  0.00  0.00    +0.000 HD
BRANCH   9  12
ATOM     12  C   UNL     1      48.360   8.507  17.823  0.00  0.00    +0.000 A 
ATOM     13  N   UNL     1      47.852   9.732  18.098  0.00  0.00    +0.000 NA
ATOM     14  N   UNL     1      47.349   9.591  19.345  0.00  0.00    +0.000 N 
ATOM     15  C   UNL     1      47.526   8.352  19.882  0.00  0.00    +0.000 A 
ATOM     16  N   UNL     1      47.136   7.951  21.106  0.00  0.00    +0.000 NA
ATOM     17  C   UNL     1      47.462   6.661  21.358  0.00  0.00    +0.000 A 
ATOM     18  C   UNL     1      48.122   5.804  20.486  0.00  0.00    +0.000 A 
ATOM     19  C   UNL     1      48.497   6.276  19.227  0.00  0.00    +0.000 A 
ATOM     20  C   UNL     1      48.184   7.610  18.917  0.00  0.00    +0.000 A 
ATOM     21  H   UNL     1      46.894  10.379  19.789  0.00  0.00    +0.000 HD
ENDBRANCH   9  12
ENDBRANCH   7  10
ENDBRANCH   1   7
BRANCH   4  22
ATOM     22  C   UNL     1      44.791   4.708  10.918  0.00  0.00    +0.000 C 
BRANCH  22  23
ATOM     23  N   UNL     1      45.128   5.021   9.531  0.00  0.00    +0.000 NA
ATOM     24  H   UNL     1      46.140   4.989   9.416  0.00  0.00    +0.000 HD
BRANCH  23  25
ATOM     25  C   UNL     1      44.510   4.089   8.593  0.00  0.00    +0.000 C 
BRANCH  25  26
ATOM     26  C   UNL     1      45.540   3.140   8.023  0.00  0.00    +0.000 A 
ATOM     27  C   UNL     1      45.651   1.823   8.491  0.00  0.00    +0.000 A 
ATOM     28  C   UNL     1      46.603   0.956   7.948  0.00  0.00    +0.000 A 
ATOM     29  C   UNL     1      47.453   1.394   6.935  0.00  0.00    +0.000 A 
ATOM     30  C   UNL     1      47.354   2.700   6.461  0.00  0.00    +0.000 A 
ATOM     31  C   UNL     1      46.402   3.567   6.999  0.00  0.00    +0.000 A 
ENDBRANCH  25  26
ENDBRANCH  23  25
ENDBRANCH  22  23
ENDBRANCH   4  22
TORSDOF 7
ENDMDL
MODEL 7
REMARK VINA RESULT:    -7.169      2.342      3.054
REMARK INTER + INTRA:         -11.017
REMARK INTER:                 -10.488
REMARK INTRA:                  -0.529
REMARK UNBOUND:                -0.915
REMARK  Name = 
REMARK  7 active torsions:
REMARK  status: ('A' for Active; 'I' for Inactive)
REMARK    1  A    between atoms: C_2  and  C_20
REMARK    2  A    between atoms: N_3  and  C_4
REMARK    3  A    between atoms: C_4  and  C_5
REMARK    4  A    between atoms: C_8  and  C_9
REMARK    5  A    between atoms: C_9  and  N_10
REMARK    6  A    between atoms: N_10  and  C_11
REMARK    7  A    between atoms: C_11  and  C_12
REMARK                            x       y       z     vdW  Elec       q    Type
REMARK                         _______ _______ _______ _____ _____    ______ ____
ROOT
ATOM      1  C   UNL     1      46.955   5.572  13.598  0.00  0.00    +0.000 A 
ATOM      2  C   UNL     1      46.431   4.293  13.377  0.00  0.00    +0.000 A 
ATOM      3  C   UNL     1      45.378   4.103  12.477  0.00  0.00    +0.000 A 
ATOM      4  C   UNL     1      44.829   5.187  11.776  0.00  0.00    +0.000 A 
ATOM      5  C   UNL     1      45.375   6.461  11.976  0.00  0.00    +0.000 A 
ATOM      6  C   UNL     1      46.429   6.651  12.875  0.00  0.00    +0.000 A 
ENDROOT
BRANCH   1   7
ATOM      7  C   UNL     1      48.050   5.787  14.606  0.00  0.00    +0.000 C 
BRANCH   7  10
ATOM      8  O   UNL     1      50.014   7.728  14.258  0.00  0.00    +0.000 OA
ATOM      9  C   UNL     1      49.028   8.004  14.937  0.00  0.00    +0.000 C 
ATOM     10  N   UNL     1      48.019   7.100  15.188  0.00  0.00    +0.000 N 
ATOM     11  H   UNL     1      47.225   7.427  15.730  0.00  0.00    +0.000 HD
BRANCH   9  12
ATOM     12  C   UNL     1      48.821   9.330  15.537  0.00  0.00    +0.000 A 
ATOM     13  N   UNL     1      49.138  10.474  14.884  0.00  0.00    +0.000 NA
ATOM     14  N   UNL     1      48.796  11.443  15.763  0.00  0.00    +0.000 N 
ATOM     15  C   UNL     1      48.297  10.978  16.941  0.00  0.00    +0.000 A 
ATOM     16  N   UNL     1      47.896  11.724  17.987  0.00  0.00    +0.000 NA
ATOM     17  C   UNL     1      47.455  10.971  19.024  0.00  0.00    +0.000 A 
ATOM     18  C   UNL     1      47.401   9.583  19.055  0.00  0.00    +0.000 A 
ATOM     19  C   UNL     1      47.827   8.863  17.937  0.00  0.00    +0.000 A 
ATOM     20  C   UNL     1      48.296   9.598  16.835  0.00  0.00    +0.000 A 
ATOM     21  H   UNL     1      48.927  12.414  15.508  0.00  0.00    +0.000 HD
ENDBRANCH   9  12
ENDBRANCH   7  10
ENDBRANCH   1   7
BRANCH   4  22
ATOM     22  C   UNL     1      43.673   4.976  10.822  0.00  0.00    +0.000 C 
BRANCH  22  23
ATOM     23  N   UNL     1      44.155   4.548   9.512  0.00  0.00    +0.000 NA
ATOM     24  H   UNL     1      45.037   5.017   9.308  0.00  0.00    +0.000 HD
BRANCH  23  25
ATOM     25  C   UNL     1      44.357   3.103   9.447  0.00  0.00    +0.000 C 
BRANCH  25  26
ATOM     26  C   UNL     1      45.440   2.758   8.449  0.00  0.00    +0.000 A 
ATOM     27  C   UNL     1      45.963   3.727   7.582  0.00  0.00    +0.000 A 
ATOM     28  C   UNL     1      46.969   3.396   6.671  0.00  0.00    +0.000 A 
ATOM     29  C   UNL     1      47.462   2.093   6.616  0.00  0.00    +0.000 A 
ATOM     30  C   UNL     1      46.951   1.120   7.471  0.00  0.00    +0.000 A 
ATOM     31  C   UNL     1      45.949   1.450   8.383  0.00  0.00    +0.000 A 
ENDBRANCH  25  26
ENDBRANCH  23  25
ENDBRANCH  22  23
ENDBRANCH   4  22
TORSDOF 7
ENDMDL
MODEL 8
REMARK VINA RESULT:    -6.858      4.217      6.464
REMARK INTER + INTRA:         -10.578
REMARK INTER:                  -9.847
REMARK INTRA:                  -0.732
REMARK UNBOUND:                -0.915
REMARK  Name = 
REMARK  7 active torsions:
REMARK  status: ('A' for Active; 'I' for Inactive)
REMARK    1  A    between atoms: C_2  and  C_20
REMARK    2  A    between atoms: N_3  and  C_4
REMARK    3  A    between atoms: C_4  and  C_5
REMARK    4  A    between atoms: C_8  and  C_9
REMARK    5  A    between atoms: C_9  and  N_10
REMARK    6  A    between atoms: N_10  and  C_11
REMARK    7  A    between atoms: C_11  and  C_12
REMARK                            x       y       z     vdW  Elec       q    Type
REMARK                         _______ _______ _______ _____ _____    ______ ____
ROOT
ATOM      1  C   UNL     1      46.288   7.084  12.815  0.00  0.00    +0.000 A 
ATOM      2  C   UNL     1      46.575   5.734  13.054  0.00  0.00    +0.000 A 
ATOM      3  C   UNL     1      45.822   4.729  12.440  0.00  0.00    +0.000 A 
ATOM      4  C   UNL     1      44.768   5.051  11.572  0.00  0.00    +0.000 A 
ATOM      5  C   UNL     1      44.502   6.401  11.311  0.00  0.00    +0.000 A 
ATOM      6  C   UNL     1      45.257   7.407  11.924  0.00  0.00    +0.000 A 
ENDROOT
BRANCH   1   7
ATOM      7  C   UNL     1      47.060   8.166  13.517  0.00  0.00    +0.000 C 
BRANCH   7  10
ATOM      8  O   UNL     1      48.950  10.043  14.328  0.00  0.00    +0.000 OA
ATOM      9  C   UNL     1      48.857   9.781  13.131  0.00  0.00    +0.000 C 
ATOM     10  N   UNL     1      47.934   8.887  12.632  0.00  0.00    +0.000 N 
ATOM     11  H   UNL     1      47.953   8.706  11.633  0.00  0.00    +0.000 HD
BRANCH   9  12
ATOM     12  C   UNL     1      49.731  10.384  12.114  0.00  0.00    +0.000 A 
ATOM     13  N   UNL     1      51.082  10.328  12.200  0.00  0.00    +0.000 NA
ATOM     14  N   UNL     1      51.494  10.984  11.091  0.00  0.00    +0.000 N 
ATOM     15  C   UNL     1      50.483  11.466  10.318  0.00  0.00    +0.000 A 
ATOM     16  N   UNL     1      50.617  12.163   9.175  0.00  0.00    +0.000 NA
ATOM     17  C   UNL     1      49.423  12.515   8.638  0.00  0.00    +0.000 A 
ATOM     18  C   UNL     1      48.174  12.212   9.167  0.00  0.00    +0.000 A 
ATOM     19  C   UNL     1      48.099  11.481  10.353  0.00  0.00    +0.000 A 
ATOM     20  C   UNL     1      49.310  11.094  10.952  0.00  0.00    +0.000 A 
ATOM     21  H   UNL     1      52.486  11.076  10.910  0.00  0.00    +0.000 HD
ENDBRANCH   9  12
ENDBRANCH   7  10
ENDBRANCH   1   7
BRANCH   4  22
ATOM     22  C   UNL     1      43.942   3.957  10.931  0.00  0.00    +0.000 C 
BRANCH  22  23
ATOM     23  N   UNL     1      44.757   2.770  10.685  0.00  0.00    +0.000 NA
ATOM     24  H   UNL     1      44.643   2.117  11.459  0.00  0.00    +0.000 HD
BRANCH  23  25
ATOM     25  C   UNL     1      44.391   2.103   9.439  0.00  0.00    +0.000 C 
BRANCH  25  26
ATOM     26  C   UNL     1      45.499   2.230   8.417  0.00  0.00    +0.000 A 
ATOM     27  C   UNL     1      46.291   1.128   8.065  0.00  0.00    +0.000 A 
ATOM     28  C   UNL     1      47.305   1.259   7.113  0.00  0.00    +0.000 A 
ATOM     29  C   UNL     1      47.538   2.490   6.504  0.00  0.00    +0.000 A 
ATOM     30  C   UNL     1      46.760   3.593   6.844  0.00  0.00    +0.000 A 
ATOM     31  C   UNL     1      45.744   3.463   7.793  0.00  0.00    +0.000 A 
ENDBRANCH  25  26
ENDBRANCH  23  25
ENDBRANCH  22  23
ENDBRANCH   4  22
TORSDOF 7
ENDMDL
MODEL 9
REMARK VINA RESULT:    -6.762      5.058      8.751
REMARK INTER + INTRA:         -10.443
REMARK INTER:                  -9.358
REMARK INTRA:                  -1.085
REMARK UNBOUND:                -0.915
REMARK  Name = 
REMARK  7 active torsions:
REMARK  status: ('A' for Active; 'I' for Inactive)
REMARK    1  A    between atoms: C_2  and  C_20
REMARK    2  A    between atoms: N_3  and  C_4
REMARK    3  A    between atoms: C_4  and  C_5
REMARK    4  A    between atoms: C_8  and  C_9
REMARK    5  A    between atoms: C_9  and  N_10
REMARK    6  A    between atoms: N_10  and  C_11
REMARK    7  A    between atoms: C_11  and  C_12
REMARK                            x       y       z     vdW  Elec       q    Type
REMARK                         _______ _______ _______ _____ _____    ______ ____
ROOT
ATOM      1  C   UNL     1      46.934   8.265  12.068  0.00  0.00    +0.000 A 
ATOM      2  C   UNL     1      47.200   9.621  12.297  0.00  0.00    +0.000 A 
ATOM      3  C   UNL     1      48.509  10.108  12.230  0.00  0.00    +0.000 A 
ATOM      4  C   UNL     1      49.579   9.253  11.930  0.00  0.00    +0.000 A 
ATOM      5  C   UNL     1      49.307   7.903  11.672  0.00  0.00    +0.000 A 
ATOM      6  C   UNL     1      47.998   7.416  11.736  0.00  0.00    +0.000 A 
ENDROOT
BRANCH   1   7
ATOM      7  C   UNL     1      45.536   7.728  12.194  0.00  0.00    +0.000 C 
BRANCH   7  10
ATOM      8  O   UNL     1      43.185   6.506  11.342  0.00  0.00    +0.000 OA
ATOM      9  C   UNL     1      44.222   5.848  11.344  0.00  0.00    +0.000 C 
ATOM     10  N   UNL     1      45.428   6.358  11.774  0.00  0.00    +0.000 N 
ATOM     11  H   UNL     1      46.241   5.752  11.707  0.00  0.00    +0.000 HD
BRANCH   9  12
ATOM     12  C   UNL     1      44.283   4.456  10.874  0.00  0.00    +0.000 A 
ATOM     13  N   UNL     1      43.683   3.443  11.544  0.00  0.00    +0.000 NA
ATOM     14  N   UNL     1      43.970   2.356  10.793  0.00  0.00    +0.000 N 
ATOM     15  C   UNL     1      44.732   2.620   9.696  0.00  0.00    +0.000 A 
ATOM     16  N   UNL     1      45.170   1.721   8.794  0.00  0.00    +0.000 NA
ATOM     17  C   UNL     1      45.917   2.288   7.817  0.00  0.00    +0.000 A 
ATOM     18  C   UNL     1      46.226   3.639   7.710  0.00  0.00    +0.000 A 
ATOM     19  C   UNL     1      45.739   4.524   8.674  0.00  0.00    +0.000 A 
ATOM     20  C   UNL     1      44.959   3.984   9.711  0.00  0.00    +0.000 A 
ATOM     21  H   UNL     1      43.621   1.449  11.078  0.00  0.00    +0.000 HD
ENDBRANCH   9  12
ENDBRANCH   7  10
ENDBRANCH   1   7
BRANCH   4  22
ATOM     22  C   UNL     1      50.995   9.785  11.884  0.00  0.00    +0.000 C 
BRANCH  22  23
ATOM     23  N   UNL     1      51.947   8.756  12.295  0.00  0.00    +0.000 NA
ATOM     24  H   UNL     1      51.543   7.836  12.121  0.00  0.00    +0.000 HD
BRANCH  23  25
ATOM     25  C   UNL     1      53.214   8.865  11.578  0.00  0.00    +0.000 C 
BRANCH  25  26
ATOM     26  C   UNL     1      53.056   8.429  10.139  0.00  0.00    +0.000 A 
ATOM     27  C   UNL     1      53.342   9.303   9.081  0.00  0.00    +0.000 A 
ATOM     28  C   UNL     1      53.199   8.884   7.756  0.00  0.00    +0.000 A 
ATOM     29  C   UNL     1      52.768   7.589   7.474  0.00  0.00    +0.000 A 
ATOM     30  C   UNL     1      52.480   6.710   8.515  0.00  0.00    +0.000 A 
ATOM     31  C   UNL     1      52.625   7.126   9.839  0.00  0.00    +0.000 A 
ENDBRANCH  25  26
ENDBRANCH  23  25
ENDBRANCH  22  23
ENDBRANCH   4  22
TORSDOF 7
ENDMDL
