MODEL 1
REMARK VINA RESULT:    -7.014      0.000      0.000
REMARK INTER + INTRA:          -9.806
REMARK INTER:                  -9.064
REMARK INTRA:                  -0.742
REMARK UNBOUND:                -0.742
REMARK  Name = 
REMARK  5 active torsions:
REMARK  status: ('A' for Active; 'I' for Inactive)
REMARK    1  A    between atoms: C_2  and  C_4
REMARK    2  A    between atoms: C_8  and  S_9
REMARK    3  A    between atoms: S_9  and  C_10
REMARK    4  A    between atoms: C_10  and  C_11
REMARK    5  A    between atoms: C_16  and  C_17
REMARK                            x       y       z     vdW  Elec       q    Type
REMARK                         _______ _______ _______ _____ _____    ______ ____
ROOT
ATOM      1  C   UNL     1      45.700   5.624  12.592  0.00  0.00    +0.000 A 
ATOM      2  C   UNL     1      45.821   4.668  13.608  0.00  0.00    +0.000 A 
ATOM      3  C   UNL     1      46.855   4.764  14.535  0.00  0.00    +0.000 A 
ATOM      4  F   UNL     1      46.955   3.849  15.508  0.00  0.00    +0.000 F 
ATOM      5  C   UNL     1      47.852   5.720  14.397  0.00  0.00    +0.000 A 
ATOM      6  C   UNL     1      47.825   6.587  13.299  0.00  0.00    +0.000 A 
ATOM      7  C   UNL     1      46.656   6.649  12.537  0.00  0.00    +0.000 A 
ENDROOT
BRANCH   6   8
ATOM      8  C   UNL     1      49.141   7.153  12.776  0.00  0.00    +0.000 C 
ATOM      9  C   UNL     1      50.017   7.852  13.812  0.00  0.00    +0.000 C 
ATOM     10  C   UNL     1      49.677   9.331  13.953  0.00  0.00    +0.000 C 
ATOM     11  N   UNL     1      49.785  10.028  12.672  0.00  0.00    +0.000 NA
ATOM     12  C   UNL     1      48.835   9.490  11.702  0.00  0.00    +0.000 C 
ATOM     13  C   UNL     1      49.021   7.987  11.476  0.00  0.00    +0.000 C 
ATOM     14  H   UNL     1      50.731   9.922  12.307  0.00  0.00    +0.000 HD
ENDBRANCH   6   8
BRANCH   1  15
ATOM     15  C   UNL     1      44.596   5.497  11.559  0.00  0.00    +0.000 C 
BRANCH  15  16
ATOM     16  S   UNL     1      45.186   5.671   9.829  0.00  0.00    +0.000 S 
BRANCH  16  21
ATOM     17  C   UNL     1      46.405   2.531   7.618  0.00  0.00    +0.000 A 
ATOM     18  C   UNL     1      45.702   1.443   8.144  0.00  0.00    +0.000 A 
ATOM     19  C   UNL     1      44.796   1.638   9.184  0.00  0.00    +0.000 A 
ATOM     20  C   UNL     1      44.599   2.916   9.712  0.00  0.00    +0.000 A 
ATOM     21  C   UNL     1      45.311   4.010   9.215  0.00  0.00    +0.000 A 
ATOM     22  C   UNL     1      46.214   3.806   8.161  0.00  0.00    +0.000 A 
BRANCH  17  24
ATOM     23  N   UNL     1      47.258   3.227   5.456  0.00  0.00    +0.000 N 
ATOM     24  C   UNL     1      47.383   2.377   6.517  0.00  0.00    +0.000 C 
ATOM     25  O   UNL     1      48.290   1.554   6.556  0.00  0.00    +0.000 OA
ATOM     26  H   UNL     1      48.008   3.179   4.763  0.00  0.00    +0.000 HD
ATOM     27  H   UNL     1      46.707   4.071   5.490  0.00  0.00    +0.000 HD
ENDBRANCH  17  24
ENDBRANCH  16  21
ENDBRANCH  15  16
ENDBRANCH   1  15
TORSDOF 5
ENDMDL
MODEL 2
REMARK VINA RESULT:    -6.989      4.500      7.959
REMARK INTER + INTRA:          -9.774
REMARK INTER:                  -9.036
REMARK INTRA:                  -0.738
REMARK UNBOUND:                -0.742
REMARK  Name = 
REMARK  5 active torsions:
REMARK  status: ('A' for Active; 'I' for Inactive)
REMARK    1  A    between atoms: C_2  and  C_4
REMARK    2  A    between atoms: C_8  and  S_9
REMARK    3  A    between atoms: S_9  and  C_10
REMARK    4  A    between atoms: C_10  and  C_11
REMARK    5  A    between atoms: C_16  and  C_17
REMARK                            x       y       z     vdW  Elec       q    Type
REMARK                         _______ _______ _______ _____ _____    ______ ____
ROOT
ATOM      1  C   UNL     1      47.693   6.971  13.858  0.00  0.00    +0.000 A 
ATOM      2  C   UNL     1      47.111   8.219  13.602  0.00  0.00    +0.000 A 
ATOM      3  C   UNL     1      45.850   8.291  13.017  0.00  0.00    +0.000 A 
ATOM      4  F   UNL     1      45.299   9.490  12.785  0.00  0.00    +0.000 F 
ATOM      5  C   UNL     1      45.207   7.149  12.560  0.00  0.00    +0.000 A 
ATOM      6  C   UNL     1      45.846   5.909  12.674  0.00  0.00    +0.000 A 
ATOM      7  C   UNL     1      46.977   5.823  13.490  0.00  0.00    +0.000 A 
ENDROOT
BRANCH   6   8
ATOM      8  C   UNL     1      45.513   4.815  11.665  0.00  0.00    +0.000 C 
ATOM      9  C   UNL     1      44.466   5.180  10.617  0.00  0.00    +0.000 C 
ATOM     10  C   UNL     1      43.047   4.888  11.090  0.00  0.00    +0.000 C 
ATOM     11  N   UNL     1      42.889   3.484  11.469  0.00  0.00    +0.000 NA
ATOM     12  C   UNL     1      43.763   3.144  12.589  0.00  0.00    +0.000 C 
ATOM     13  C   UNL     1      45.237   3.421  12.284  0.00  0.00    +0.000 C 
ATOM     14  H   UNL     1      43.120   2.890  10.674  0.00  0.00    +0.000 HD
ENDBRANCH   6   8
BRANCH   1  15
ATOM     15  C   UNL     1      49.084   6.893  14.459  0.00  0.00    +0.000 C 
BRANCH  15  16
ATOM     16  S   UNL     1      49.183   7.551  16.171  0.00  0.00    +0.000 S 
BRANCH  16  21
ATOM     17  C   UNL     1      49.197   3.767  17.555  0.00  0.00    +0.000 A 
ATOM     18  C   UNL     1      48.506   3.839  18.769  0.00  0.00    +0.000 A 
ATOM     19  C   UNL     1      47.978   5.056  19.197  0.00  0.00    +0.000 A 
ATOM     20  C   UNL     1      48.149   6.206  18.423  0.00  0.00    +0.000 A 
ATOM     21  C   UNL     1      48.857   6.156  17.220  0.00  0.00    +0.000 A 
ATOM     22  C   UNL     1      49.377   4.925  16.792  0.00  0.00    +0.000 A 
BRANCH  17  24
ATOM     23  N   UNL     1      50.822   1.980  17.771  0.00  0.00    +0.000 N 
ATOM     24  C   UNL     1      49.782   2.501  17.058  0.00  0.00    +0.000 C 
ATOM     25  O   UNL     1      49.341   1.917  16.075  0.00  0.00    +0.000 OA
ATOM     26  H   UNL     1      51.137   1.053  17.476  0.00  0.00    +0.000 HD
ATOM     27  H   UNL     1      51.048   2.274  18.709  0.00  0.00    +0.000 HD
ENDBRANCH  17  24
ENDBRANCH  16  21
ENDBRANCH  15  16
ENDBRANCH   1  15
TORSDOF 5
ENDMDL
MODEL 3
REMARK VINA RESULT:    -6.966      4.411      7.842
REMARK INTER + INTRA:          -9.745
REMARK INTER:                  -9.117
REMARK INTRA:                  -0.627
REMARK UNBOUND:                -0.742
REMARK  Name = 
REMARK  5 active torsions:
REMARK  status: ('A' for Active; 'I' for Inactive)
REMARK    1  A    between atoms: C_2  and  C_4
REMARK    2  A    between atoms: C_8  and  S_9
REMARK    3  A    between atoms: S_9  and  C_10
REMARK    4  A    between atoms: C_10  and  C_11
REMARK    5  A    between atoms: C_16  and  C_17
REMARK                            x       y       z     vdW  Elec       q    Type
REMARK                         _______ _______ _______ _____ _____    ______ ____
ROOT
ATOM      1  C   UNL     1      47.776   7.153  13.458  0.00  0.00    +0.000 A 
ATOM      2  C   UNL     1      47.077   8.360  13.333  0.00  0.00    +0.000 A 
ATOM      3  C   UNL     1      45.744   8.353  12.934  0.00  0.00    +0.000 A 
ATOM      4  F   UNL     1      45.082   9.513  12.827  0.00  0.00    +0.000 F 
ATOM      5  C   UNL     1      45.125   7.178  12.528  0.00  0.00    +0.000 A 
ATOM      6  C   UNL     1      45.859   5.988  12.504  0.00  0.00    +0.000 A 
ATOM      7  C   UNL     1      47.098   5.965  13.150  0.00  0.00    +0.000 A 
ENDROOT
BRANCH   6   8
ATOM      8  C   UNL     1      45.464   4.900  11.511  0.00  0.00    +0.000 C 
ATOM      9  C   UNL     1      44.364   5.276  10.523  0.00  0.00    +0.000 C 
ATOM     10  C   UNL     1      42.971   4.991  11.072  0.00  0.00    +0.000 C 
ATOM     11  N   UNL     1      42.824   3.587  11.454  0.00  0.00    +0.000 NA
ATOM     12  C   UNL     1      43.756   3.236  12.523  0.00  0.00    +0.000 C 
ATOM     13  C   UNL     1      45.213   3.505  12.139  0.00  0.00    +0.000 C 
ATOM     14  H   UNL     1      43.007   2.994  10.645  0.00  0.00    +0.000 HD
ENDBRANCH   6   8
BRANCH   1  15
ATOM     15  C   UNL     1      49.241   7.163  13.855  0.00  0.00    +0.000 C 
BRANCH  15  16
ATOM     16  S   UNL     1      49.568   8.048  15.431  0.00  0.00    +0.000 S 
BRANCH  16  21
ATOM     17  C   UNL     1      47.864   4.870  17.229  0.00  0.00    +0.000 A 
ATOM     18  C   UNL     1      47.639   5.294  18.543  0.00  0.00    +0.000 A 
ATOM     19  C   UNL     1      47.975   6.592  18.921  0.00  0.00    +0.000 A 
ATOM     20  C   UNL     1      48.549   7.466  17.995  0.00  0.00    +0.000 A 
ATOM     21  C   UNL     1      48.802   7.051  16.685  0.00  0.00    +0.000 A 
ATOM     22  C   UNL     1      48.453   5.745  16.311  0.00  0.00    +0.000 A 
BRANCH  17  24
ATOM     23  N   UNL     1      46.926   2.680  17.686  0.00  0.00    +0.000 N 
ATOM     24  C   UNL     1      47.530   3.499  16.778  0.00  0.00    +0.000 C 
ATOM     25  O   UNL     1      47.748   3.115  15.634  0.00  0.00    +0.000 OA
ATOM     26  H   UNL     1      46.604   1.780  17.322  0.00  0.00    +0.000 HD
ATOM     27  H   UNL     1      46.499   3.019  18.535  0.00  0.00    +0.000 HD
ENDBRANCH  17  24
ENDBRANCH  16  21
ENDBRANCH  15  16
ENDBRANCH   1  15
TORSDOF 5
ENDMDL
MODEL 4
REMARK VINA RESULT:    -6.915      3.044      7.365
REMARK INTER + INTRA:          -9.679
REMARK INTER:                  -8.934
REMARK INTRA:                  -0.745
REMARK UNBOUND:                -0.742
REMARK  Name = 
REMARK  5 active torsions:
REMARK  status: ('A' for Active; 'I' for Inactive)
REMARK    1  A    between atoms: C_2  and  C_4
REMARK    2  A    between atoms: C_8  and  S_9
REMARK    3  A    between atoms: S_9  and  C_10
REMARK    4  A    between atoms: C_10  and  C_11
REMARK    5  A    between atoms: C_16  and  C_17
REMARK                            x       y       z     vdW  Elec       q    Type
REMARK                         _______ _______ _______ _____ _____    ______ ____
ROOT
ATOM      1  C   UNL     1      45.325   6.001  11.876  0.00  0.00    +0.000 A 
ATOM      2  C   UNL     1      44.392   5.613  12.846  0.00  0.00    +0.000 A 
ATOM      3  C   UNL     1      43.752   4.382  12.742  0.00  0.00    +0.000 A 
ATOM      4  F   UNL     1      42.868   4.017  13.681  0.00  0.00    +0.000 F 
ATOM      5  C   UNL     1      43.920   3.581  11.621  0.00  0.00    +0.000 A 
ATOM      6  C   UNL     1      44.733   4.028  10.574  0.00  0.00    +0.000 A 
ATOM      7  C   UNL     1      45.565   5.126  10.807  0.00  0.00    +0.000 A 
ENDROOT
BRANCH   6   8
ATOM      8  C   UNL     1      44.440   3.544   9.158  0.00  0.00    +0.000 C 
ATOM      9  C   UNL     1      44.496   2.033   8.951  0.00  0.00    +0.000 C 
ATOM     10  C   UNL     1      45.899   1.549   8.603  0.00  0.00    +0.000 C 
ATOM     11  N   UNL     1      46.417   2.223   7.413  0.00  0.00    +0.000 NA
ATOM     12  C   UNL     1      46.534   3.663   7.637  0.00  0.00    +0.000 C 
ATOM     13  C   UNL     1      45.202   4.301   8.040  0.00  0.00    +0.000 C 
ATOM     14  H   UNL     1      45.788   2.059   6.628  0.00  0.00    +0.000 HD
ENDBRANCH   6   8
BRANCH   1  15
ATOM     15  C   UNL     1      45.994   7.360  11.969  0.00  0.00    +0.000 C 
BRANCH  15  16
ATOM     16  S   UNL     1      47.826   7.284  11.886  0.00  0.00    +0.000 S 
BRANCH  16  21
ATOM     17  C   UNL     1      48.115   5.619  15.544  0.00  0.00    +0.000 A 
ATOM     18  C   UNL     1      49.094   6.378  16.194  0.00  0.00    +0.000 A 
ATOM     19  C   UNL     1      49.684   7.458  15.541  0.00  0.00    +0.000 A 
ATOM     20  C   UNL     1      49.311   7.775  14.232  0.00  0.00    +0.000 A 
ATOM     21  C   UNL     1      48.352   7.013  13.560  0.00  0.00    +0.000 A 
ATOM     22  C   UNL     1      47.757   5.933  14.230  0.00  0.00    +0.000 A 
BRANCH  17  24
ATOM     23  N   UNL     1      47.003   4.640  17.465  0.00  0.00    +0.000 N 
ATOM     24  C   UNL     1      47.461   4.459  16.192  0.00  0.00    +0.000 C 
ATOM     25  O   UNL     1      47.299   3.391  15.613  0.00  0.00    +0.000 OA
ATOM     26  H   UNL     1      46.458   3.865  17.850  0.00  0.00    +0.000 HD
ATOM     27  H   UNL     1      46.880   5.550  17.881  0.00  0.00    +0.000 HD
ENDBRANCH  17  24
ENDBRANCH  16  21
ENDBRANCH  15  16
ENDBRANCH   1  15
TORSDOF 5
ENDMDL
MODEL 5
REMARK VINA RESULT:    -6.807      4.798      8.250
REMARK INTER + INTRA:          -9.539
REMARK INTER:                  -8.981
REMARK INTRA:                  -0.558
REMARK UNBOUND:                -0.742
REMARK  Name = 
REMARK  5 active torsions:
REMARK  status: ('A' for Active; 'I' for Inactive)
REMARK    1  A    between atoms: C_2  and  C_4
REMARK    2  A    between atoms: C_8  and  S_9
REMARK    3  A    between atoms: S_9  and  C_10
REMARK    4  A    between atoms: C_10  and  C_11
REMARK    5  A    between atoms: C_16  and  C_17
REMARK                            x       y       z     vdW  Elec       q    Type
REMARK                         _______ _______ _______ _____ _____    ______ ____
ROOT
ATOM      1  C   UNL     1      46.871   4.783  13.856  0.00  0.00    +0.000 A 
ATOM      2  C   UNL     1      47.789   5.721  13.369  0.00  0.00    +0.000 A 
ATOM      3  C   UNL     1      47.386   6.664  12.428  0.00  0.00    +0.000 A 
ATOM      4  F   UNL     1      48.271   7.563  11.976  0.00  0.00    +0.000 F 
ATOM      5  C   UNL     1      46.121   6.613  11.860  0.00  0.00    +0.000 A 
ATOM      6  C   UNL     1      45.245   5.586  12.227  0.00  0.00    +0.000 A 
ATOM      7  C   UNL     1      45.563   4.818  13.350  0.00  0.00    +0.000 A 
ENDROOT
BRANCH   6   8
ATOM      8  C   UNL     1      44.192   5.124  11.226  0.00  0.00    +0.000 C 
ATOM      9  C   UNL     1      43.049   4.295  11.805  0.00  0.00    +0.000 C 
ATOM     10  C   UNL     1      43.373   2.806  11.836  0.00  0.00    +0.000 C 
ATOM     11  N   UNL     1      43.712   2.305  10.504  0.00  0.00    +0.000 NA
ATOM     12  C   UNL     1      44.909   2.965   9.987  0.00  0.00    +0.000 C 
ATOM     13  C   UNL     1      44.758   4.487   9.931  0.00  0.00    +0.000 C 
ATOM     14  H   UNL     1      42.936   2.479   9.868  0.00  0.00    +0.000 HD
ENDBRANCH   6   8
BRANCH   1  15
ATOM     15  C   UNL     1      47.320   3.730  14.853  0.00  0.00    +0.000 C 
BRANCH  15  16
ATOM     16  S   UNL     1      47.345   4.327  16.589  0.00  0.00    +0.000 S 
BRANCH  16  21
ATOM     17  C   UNL     1      51.130   3.347  17.566  0.00  0.00    +0.000 A 
ATOM     18  C   UNL     1      51.811   4.569  17.581  0.00  0.00    +0.000 A 
ATOM     19  C   UNL     1      51.123   5.752  17.321  0.00  0.00    +0.000 A 
ATOM     20  C   UNL     1      49.757   5.720  17.032  0.00  0.00    +0.000 A 
ATOM     21  C   UNL     1      49.066   4.506  16.989  0.00  0.00    +0.000 A 
ATOM     22  C   UNL     1      49.765   3.321  17.261  0.00  0.00    +0.000 A 
BRANCH  17  24
ATOM     23  N   UNL     1      51.119   0.922  17.547  0.00  0.00    +0.000 N 
ATOM     24  C   UNL     1      51.815   2.061  17.829  0.00  0.00    +0.000 C 
ATOM     25  O   UNL     1      52.966   2.006  18.247  0.00  0.00    +0.000 OA
ATOM     26  H   UNL     1      51.649   0.051  17.630  0.00  0.00    +0.000 HD
ATOM     27  H   UNL     1      50.290   0.911  16.973  0.00  0.00    +0.000 HD
ENDBRANCH  17  24
ENDBRANCH  16  21
ENDBRANCH  15  16
ENDBRANCH   1  15
TORSDOF 5
ENDMDL
MODEL 6
REMARK VINA RESULT:    -6.743      4.171      7.236
REMARK INTER + INTRA:          -9.456
REMARK INTER:                  -8.595
REMARK INTRA:                  -0.861
REMARK UNBOUND:                -0.742
REMARK  Name = 
REMARK  5 active torsions:
REMARK  status: ('A' for Active; 'I' for Inactive)
REMARK    1  A    between atoms: C_2  and  C_4
REMARK    2  A    between atoms: C_8  and  S_9
REMARK    3  A    between atoms: S_9  and  C_10
REMARK    4  A    between atoms: C_10  and  C_11
REMARK    5  A    between atoms: C_16  and  C_17
REMARK                            x       y       z     vdW  Elec       q    Type
REMARK                         _______ _______ _______ _____ _____    ______ ____
ROOT
ATOM      1  C   UNL     1      47.861   7.199  12.351  0.00  0.00    +0.000 A 
ATOM      2  C   UNL     1      48.039   6.659  13.631  0.00  0.00    +0.000 A 
ATOM      3  C   UNL     1      47.298   5.550  14.027  0.00  0.00    +0.000 A 
ATOM      4  F   UNL     1      47.484   5.037  15.251  0.00  0.00    +0.000 F 
ATOM      5  C   UNL     1      46.287   5.041  13.224  0.00  0.00    +0.000 A 
ATOM      6  C   UNL     1      45.997   5.667  12.007  0.00  0.00    +0.000 A 
ATOM      7  C   UNL     1      46.910   6.600  11.511  0.00  0.00    +0.000 A 
ENDROOT
BRANCH   6   8
ATOM      8  C   UNL     1      44.579   5.576  11.453  0.00  0.00    +0.000 C 
ATOM      9  C   UNL     1      43.489   5.269  12.475  0.00  0.00    +0.000 C 
ATOM     10  C   UNL     1      43.285   3.771  12.671  0.00  0.00    +0.000 C 
ATOM     11  N   UNL     1      42.970   3.105  11.408  0.00  0.00    +0.000 NA
ATOM     12  C   UNL     1      44.072   3.239  10.457  0.00  0.00    +0.000 C 
ATOM     13  C   UNL     1      44.430   4.702  10.182  0.00  0.00    +0.000 C 
ATOM     14  H   UNL     1      42.131   3.521  11.004  0.00  0.00    +0.000 HD
ENDBRANCH   6   8
BRANCH   1  15
ATOM     15  C   UNL     1      48.640   8.432  11.934  0.00  0.00    +0.000 C 
BRANCH  15  16
ATOM     16  S   UNL     1      48.073   9.973  12.756  0.00  0.00    +0.000 S 
BRANCH  16  21
ATOM     17  C   UNL     1      44.560  10.726  10.931  0.00  0.00    +0.000 A 
ATOM     18  C   UNL     1      44.860  11.728  10.003  0.00  0.00    +0.000 A 
ATOM     19  C   UNL     1      46.168  12.192   9.878  0.00  0.00    +0.000 A 
ATOM     20  C   UNL     1      47.178  11.668  10.688  0.00  0.00    +0.000 A 
ATOM     21  C   UNL     1      46.891  10.684  11.637  0.00  0.00    +0.000 A 
ATOM     22  C   UNL     1      45.573  10.217  11.750  0.00  0.00    +0.000 A 
BRANCH  17  24
ATOM     23  N   UNL     1      42.969   8.904  10.747  0.00  0.00    +0.000 N 
ATOM     24  C   UNL     1      43.186  10.203  11.107  0.00  0.00    +0.000 C 
ATOM     25  O   UNL     1      42.283  10.880  11.585  0.00  0.00    +0.000 OA
ATOM     26  H   UNL     1      42.046   8.532  10.980  0.00  0.00    +0.000 HD
ATOM     27  H   UNL     1      43.716   8.243  10.597  0.00  0.00    +0.000 HD
ENDBRANCH  17  24
ENDBRANCH  16  21
ENDBRANCH  15  16
ENDBRANCH   1  15
TORSDOF 5
ENDMDL
MODEL 7
REMARK VINA RESULT:    -6.516      3.694      5.536
REMARK INTER + INTRA:          -9.163
REMARK INTER:                  -8.125
REMARK INTRA:                  -1.039
REMARK UNBOUND:                -0.742
REMARK  Name = 
REMARK  5 active torsions:
REMARK  status: ('A' for Active; 'I' for Inactive)
REMARK    1  A    between atoms: C_2  and  C_4
REMARK    2  A    between atoms: C_8  and  S_9
REMARK    3  A    between atoms: S_9  and  C_10
REMARK    4  A    between atoms: C_10  and  C_11
REMARK    5  A    between atoms: C_16  and  C_17
REMARK                            x       y       z     vdW  Elec       q    Type
REMARK                         _______ _______ _______ _____ _____    ______ ____
ROOT
ATOM      1  C   UNL     1      49.138   7.835  14.581  0.00  0.00    +0.000 A 
ATOM      2  C   UNL     1      48.516   8.994  15.064  0.00  0.00    +0.000 A 
ATOM      3  C   UNL     1      48.480   9.244  16.432  0.00  0.00    +0.000 A 
ATOM      4  F   UNL     1      47.891  10.361  16.882  0.00  0.00    +0.000 F 
ATOM      5  C   UNL     1      48.933   8.301  17.345  0.00  0.00    +0.000 A 
ATOM      6  C   UNL     1      49.417   7.074  16.880  0.00  0.00    +0.000 A 
ATOM      7  C   UNL     1      49.690   6.946  15.516  0.00  0.00    +0.000 A 
ENDROOT
BRANCH   6   8
ATOM      8  C   UNL     1      49.303   5.849  17.781  0.00  0.00    +0.000 C 
ATOM      9  C   UNL     1      48.951   4.542  17.078  0.00  0.00    +0.000 C 
ATOM     10  C   UNL     1      47.445   4.336  16.958  0.00  0.00    +0.000 C 
ATOM     11  N   UNL     1      46.795   4.375  18.267  0.00  0.00    +0.000 NA
ATOM     12  C   UNL     1      46.973   5.680  18.900  0.00  0.00    +0.000 C 
ATOM     13  C   UNL     1      48.448   6.057  19.057  0.00  0.00    +0.000 C 
ATOM     14  H   UNL     1      47.197   3.657  18.868  0.00  0.00    +0.000 HD
ENDBRANCH   6   8
BRANCH   1  15
ATOM     15  C   UNL     1      49.143   7.542  13.092  0.00  0.00    +0.000 C 
BRANCH  15  16
ATOM     16  S   UNL     1      47.488   7.682  12.310  0.00  0.00    +0.000 S 
BRANCH  16  21
ATOM     17  C   UNL     1      45.160   4.483  11.546  0.00  0.00    +0.000 A 
ATOM     18  C   UNL     1      45.548   3.536  12.499  0.00  0.00    +0.000 A 
ATOM     19  C   UNL     1      46.525   3.857  13.440  0.00  0.00    +0.000 A 
ATOM     20  C   UNL     1      47.126   5.118  13.425  0.00  0.00    +0.000 A 
ATOM     21  C   UNL     1      46.767   6.067  12.465  0.00  0.00    +0.000 A 
ATOM     22  C   UNL     1      45.777   5.738  11.526  0.00  0.00    +0.000 A 
BRANCH  17  24
ATOM     23  N   UNL     1      44.328   4.726   9.280  0.00  0.00    +0.000 N 
ATOM     24  C   UNL     1      44.132   4.191  10.520  0.00  0.00    +0.000 C 
ATOM     25  O   UNL     1      43.164   3.475  10.749  0.00  0.00    +0.000 OA
ATOM     26  H   UNL     1      43.668   4.421   8.561  0.00  0.00    +0.000 HD
ATOM     27  H   UNL     1      45.214   5.096   8.974  0.00  0.00    +0.000 HD
ENDBRANCH  17  24
ENDBRANCH  16  21
ENDBRANCH  15  16
ENDBRANCH   1  15
TORSDOF 5
ENDMDL
MODEL 8
REMARK VINA RESULT:    -6.243      4.789      8.410
REMARK INTER + INTRA:          -8.811
REMARK INTER:                  -8.213
REMARK INTRA:                  -0.597
REMARK UNBOUND:                -0.742
REMARK  Name = 
REMARK  5 active torsions:
REMARK  status: ('A' for Active; 'I' for Inactive)
REMARK    1  A    between atoms: C_2  and  C_4
REMARK    2  A    between atoms: C_8  and  S_9
REMARK    3  A    between atoms: S_9  and  C_10
REMARK    4  A    between atoms: C_10  and  C_11
REMARK    5  A    between atoms: C_16  and  C_17
REMARK                            x       y       z     vdW  Elec       q    Type
REMARK                         _______ _______ _______ _____ _____    ______ ____
ROOT
ATOM      1  C   UNL     1      46.808   6.521  12.867  0.00  0.00    +0.000 A 
ATOM      2  C   UNL     1      46.774   7.891  12.574  0.00  0.00    +0.000 A 
ATOM      3  C   UNL     1      45.630   8.455  12.018  0.00  0.00    +0.000 A 
ATOM      4  F   UNL     1      45.607   9.768  11.751  0.00  0.00    +0.000 F 
ATOM      5  C   UNL     1      44.561   7.663  11.625  0.00  0.00    +0.000 A 
ATOM      6  C   UNL     1      44.644   6.274  11.773  0.00  0.00    +0.000 A 
ATOM      7  C   UNL     1      45.672   5.756  12.564  0.00  0.00    +0.000 A 
ENDROOT
BRANCH   6   8
ATOM      8  C   UNL     1      43.854   5.384  10.819  0.00  0.00    +0.000 C 
ATOM      9  C   UNL     1      42.761   4.535  11.461  0.00  0.00    +0.000 C 
ATOM     10  C   UNL     1      43.286   3.190  11.951  0.00  0.00    +0.000 C 
ATOM     11  N   UNL     1      43.916   2.436  10.868  0.00  0.00    +0.000 NA
ATOM     12  C   UNL     1      45.076   3.151  10.339  0.00  0.00    +0.000 C 
ATOM     13  C   UNL     1      44.719   4.552   9.838  0.00  0.00    +0.000 C 
ATOM     14  H   UNL     1      43.242   2.294  10.116  0.00  0.00    +0.000 HD
ENDBRANCH   6   8
BRANCH   1  15
ATOM     15  C   UNL     1      48.069   5.899  13.437  0.00  0.00    +0.000 C 
BRANCH  15  16
ATOM     16  S   UNL     1      48.605   6.649  15.025  0.00  0.00    +0.000 S 
BRANCH  16  21
ATOM     17  C   UNL     1      48.933   4.599  18.478  0.00  0.00    +0.000 A 
ATOM     18  C   UNL     1      48.077   3.505  18.315  0.00  0.00    +0.000 A 
ATOM     19  C   UNL     1      47.385   3.336  17.117  0.00  0.00    +0.000 A 
ATOM     20  C   UNL     1      47.535   4.265  16.084  0.00  0.00    +0.000 A 
ATOM     21  C   UNL     1      48.367   5.376  16.240  0.00  0.00    +0.000 A 
ATOM     22  C   UNL     1      49.066   5.533  17.446  0.00  0.00    +0.000 A 
BRANCH  17  24
ATOM     23  N   UNL     1      49.204   4.227  20.860  0.00  0.00    +0.000 N 
ATOM     24  C   UNL     1      49.686   4.827  19.733  0.00  0.00    +0.000 C 
ATOM     25  O   UNL     1      50.715   5.491  19.768  0.00  0.00    +0.000 OA
ATOM     26  H   UNL     1      49.798   4.306  21.688  0.00  0.00    +0.000 HD
ATOM     27  H   UNL     1      48.528   3.479  20.839  0.00  0.00    +0.000 HD
ENDBRANCH  17  24
ENDBRANCH  16  21
ENDBRANCH  15  16
ENDBRANCH   1  15
TORSDOF 5
ENDMDL
MODEL 9
REMARK VINA RESULT:    -5.975      4.035      7.103
REMARK INTER + INTRA:          -8.464
REMARK INTER:                  -7.497
REMARK INTRA:                  -0.966
REMARK UNBOUND:                -0.742
REMARK  Name = 
REMARK  5 active torsions:
REMARK  status: ('A' for Active; 'I' for Inactive)
REMARK    1  A    between atoms: C_2  and  C_4
REMARK    2  A    between atoms: C_8  and  S_9
REMARK    3  A    between atoms: S_9  and  C_10
REMARK    4  A    between atoms: C_10  and  C_11
REMARK    5  A    between atoms: C_16  and  C_17
REMARK                            x       y       z     vdW  Elec       q    Type
REMARK                         _______ _______ _______ _____ _____    ______ ____
ROOT
ATOM      1  C   UNL     1      47.953   6.483  13.982  0.00  0.00    +0.000 A 
ATOM      2  C   UNL     1      47.811   5.770  15.180  0.00  0.00    +0.000 A 
ATOM      3  C   UNL     1      47.179   4.530  15.180  0.00  0.00    +0.000 A 
ATOM      4  F   UNL     1      47.057   3.854  16.330  0.00  0.00    +0.000 F 
ATOM      5  C   UNL     1      46.565   4.040  14.035  0.00  0.00    +0.000 A 
ATOM      6  C   UNL     1      46.569   4.813  12.870  0.00  0.00    +0.000 A 
ATOM      7  C   UNL     1      47.423   5.917  12.813  0.00  0.00    +0.000 A 
ENDROOT
BRANCH   6   8
ATOM      8  C   UNL     1      45.429   4.644  11.871  0.00  0.00    +0.000 C 
ATOM      9  C   UNL     1      45.151   5.847  10.975  0.00  0.00    +0.000 C 
ATOM     10  C   UNL     1      44.173   6.828  11.610  0.00  0.00    +0.000 C 
ATOM     11  N   UNL     1      42.910   6.175  11.954  0.00  0.00    +0.000 NA
ATOM     12  C   UNL     1      43.119   5.121  12.943  0.00  0.00    +0.000 C 
ATOM     13  C   UNL     1      44.120   4.065  12.468  0.00  0.00    +0.000 C 
ATOM     14  H   UNL     1      42.499   5.767  11.115  0.00  0.00    +0.000 HD
ENDBRANCH   6   8
BRANCH   1  15
ATOM     15  C   UNL     1      48.608   7.852  13.988  0.00  0.00    +0.000 C 
BRANCH  15  16
ATOM     16  S   UNL     1      49.684   8.157  12.532  0.00  0.00    +0.000 S 
BRANCH  16  21
ATOM     17  C   UNL     1      46.997  10.949  11.424  0.00  0.00    +0.000 A 
ATOM     18  C   UNL     1      47.731  11.845  10.641  0.00  0.00    +0.000 A 
ATOM     19  C   UNL     1      49.082  11.608  10.394  0.00  0.00    +0.000 A 
ATOM     20  C   UNL     1      49.708  10.484  10.939  0.00  0.00    +0.000 A 
ATOM     21  C   UNL     1      48.995   9.592  11.744  0.00  0.00    +0.000 A 
ATOM     22  C   UNL     1      47.633   9.834  11.980  0.00  0.00    +0.000 A 
BRANCH  17  24
ATOM     23  N   UNL     1      45.197  12.395  12.167  0.00  0.00    +0.000 N 
ATOM     24  C   UNL     1      45.561  11.157  11.721  0.00  0.00    +0.000 C 
ATOM     25  O   UNL     1      44.722  10.282  11.546  0.00  0.00    +0.000 OA
ATOM     26  H   UNL     1      44.190  12.550  12.258  0.00  0.00    +0.000 HD
ATOM     27  H   UNL     1      45.789  13.206  12.082  0.00  0.00    +0.000 HD
ENDBRANCH  17  24
ENDBRANCH  16  21
ENDBRANCH  15  16
ENDBRANCH   1  15
TORSDOF 5
ENDMDL
