MODEL 1
REMARK VINA RESULT:    -8.048      0.000      0.000
REMARK INTER + INTRA:         -10.546
REMARK INTER:                  -9.929
REMARK INTRA:                  -0.617
REMARK UNBOUND:                -0.617
REMARK  Name = 
REMARK  5 active torsions:
REMARK  status: ('A' for Active; 'I' for Inactive)
REMARK    1  A    between atoms: C_1  and  C_2
REMARK    2  A    between atoms: C_5  and  O_6
REMARK    3  A    between atoms: O_6  and  C_7
REMARK    4  A    between atoms: C_7  and  C_8
REMARK    5  A    between atoms: C_12  and  C_13
REMARK                            x       y       z     vdW  Elec       q    Type
REMARK                         _______ _______ _______ _____ _____    ______ ____
ROOT
ATOM      1  C   UNL     1      45.387   5.315  12.078  0.00  0.00    +0.000 A 
ATOM      2  C   UNL     1      46.096   6.351  11.450  0.00  0.00    +0.000 A 
ATOM      3  C   UNL     1      47.280   6.861  11.984  0.00  0.00    +0.000 A 
ATOM      4  C   UNL     1      47.770   6.367  13.188  0.00  0.00    +0.000 A 
ATOM      5  C   UNL     1      47.106   5.337  13.870  0.00  0.00    +0.000 A 
ATOM      6  C   UNL     1      45.948   4.802  13.267  0.00  0.00    +0.000 A 
ENDROOT
BRANCH   5   7
ATOM      7  C   UNL     1      47.553   4.885  15.202  0.00  0.00    +0.000 A 
ATOM      8  C   UNL     1      47.193   3.643  15.740  0.00  0.00    +0.000 A 
ATOM      9  C   UNL     1      47.599   3.282  17.025  0.00  0.00    +0.000 A 
ATOM     10  C   UNL     1      48.370   4.175  17.747  0.00  0.00    +0.000 A 
ATOM     11  N   UNL     1      48.751   5.378  17.278  0.00  0.00    +0.000 NA
ATOM     12  C   UNL     1      48.331   5.701  16.029  0.00  0.00    +0.000 A 
ENDBRANCH   5   7
BRANCH   1  13
ATOM     13  C   UNL     1      44.031   4.829  11.561  0.00  0.00    +0.000 C 
ATOM     14  C   UNL     1      42.832   4.975  12.506  0.00  0.00    +0.000 C 
ATOM     15  C   UNL     1      42.936   5.844  11.300  0.00  0.00    +0.000 C 
BRANCH  13  16
ATOM     16  O   UNL     1      43.986   3.546  10.889  0.00  0.00    +0.000 OA
BRANCH  16  21
ATOM     17  C   UNL     1      47.140   2.776   6.310  0.00  0.00    +0.000 C 
ATOM     18  C   UNL     1      46.183   2.931   7.454  0.00  0.00    +0.000 A 
ATOM     19  C   UNL     1      45.925   1.872   8.317  0.00  0.00    +0.000 A 
ATOM     20  C   UNL     1      45.145   2.104   9.451  0.00  0.00    +0.000 A 
ATOM     21  C   UNL     1      44.635   3.374   9.696  0.00  0.00    +0.000 A 
ATOM     22  C   UNL     1      44.891   4.351   8.752  0.00  0.00    +0.000 A 
ATOM     23  N   UNL     1      45.654   4.160   7.641  0.00  0.00    +0.000 NA
ENDBRANCH  16  21
ENDBRANCH  13  16
ENDBRANCH   1  13
TORSDOF 4
ENDMDL
MODEL 2
REMARK VINA RESULT:    -8.037      2.151      3.596
REMARK INTER + INTRA:         -10.533
REMARK INTER:                  -9.594
REMARK INTRA:                  -0.939
REMARK UNBOUND:                -0.617
REMARK  Name = 
REMARK  5 active torsions:
REMARK  status: ('A' for Active; 'I' for Inactive)
REMARK    1  A    between atoms: C_1  and  C_2
REMARK    2  A    between atoms: C_5  and  O_6
REMARK    3  A    between atoms: O_6  and  C_7
REMARK    4  A    between atoms: C_7  and  C_8
REMARK    5  A    between atoms: C_12  and  C_13
REMARK                            x       y       z     vdW  Elec       q    Type
REMARK                         _______ _______ _______ _____ _____    ______ ____
ROOT
ATOM      1  C   UNL     1      45.087   5.088  12.130  0.00  0.00    +0.000 A 
ATOM      2  C   UNL     1      45.674   4.120  12.959  0.00  0.00    +0.000 A 
ATOM      3  C   UNL     1      46.919   4.319  13.557  0.00  0.00    +0.000 A 
ATOM      4  C   UNL     1      47.630   5.488  13.310  0.00  0.00    +0.000 A 
ATOM      5  C   UNL     1      47.104   6.493  12.485  0.00  0.00    +0.000 A 
ATOM      6  C   UNL     1      45.816   6.284  11.951  0.00  0.00    +0.000 A 
ENDROOT
BRANCH   5   7
ATOM      7  C   UNL     1      47.897   7.684  12.125  0.00  0.00    +0.000 A 
ATOM      8  C   UNL     1      49.261   7.621  11.814  0.00  0.00    +0.000 A 
ATOM      9  C   UNL     1      49.979   8.783  11.530  0.00  0.00    +0.000 A 
ATOM     10  C   UNL     1      49.309   9.993  11.554  0.00  0.00    +0.000 A 
ATOM     11  N   UNL     1      47.999  10.113  11.840  0.00  0.00    +0.000 NA
ATOM     12  C   UNL     1      47.333   8.965  12.121  0.00  0.00    +0.000 A 
ENDBRANCH   5   7
BRANCH   1  13
ATOM     13  C   UNL     1      43.779   4.830  11.379  0.00  0.00    +0.000 C 
ATOM     14  C   UNL     1      42.475   5.115  12.133  0.00  0.00    +0.000 C 
ATOM     15  C   UNL     1      42.895   6.007  11.016  0.00  0.00    +0.000 C 
BRANCH  13  16
ATOM     16  O   UNL     1      43.665   3.596  10.628  0.00  0.00    +0.000 OA
BRANCH  16  21
ATOM     17  C   UNL     1      47.426   2.600   6.582  0.00  0.00    +0.000 C 
ATOM     18  C   UNL     1      46.317   2.819   7.568  0.00  0.00    +0.000 A 
ATOM     19  C   UNL     1      45.881   1.788   8.393  0.00  0.00    +0.000 A 
ATOM     20  C   UNL     1      44.953   2.076   9.394  0.00  0.00    +0.000 A 
ATOM     21  C   UNL     1      44.475   3.373   9.548  0.00  0.00    +0.000 A 
ATOM     22  C   UNL     1      44.918   4.321   8.644  0.00  0.00    +0.000 A 
ATOM     23  N   UNL     1      45.828   4.076   7.662  0.00  0.00    +0.000 NA
ENDBRANCH  16  21
ENDBRANCH  13  16
ENDBRANCH   1  13
TORSDOF 4
ENDMDL
MODEL 3
REMARK VINA RESULT:    -7.700      2.792      4.510
REMARK INTER + INTRA:         -10.118
REMARK INTER:                  -9.423
REMARK INTRA:                  -0.694
REMARK UNBOUND:                -0.617
REMARK  Name = 
REMARK  5 active torsions:
REMARK  status: ('A' for Active; 'I' for Inactive)
REMARK    1  A    between atoms: C_1  and  C_2
REMARK    2  A    between atoms: C_5  and  O_6
REMARK    3  A    between atoms: O_6  and  C_7
REMARK    4  A    between atoms: C_7  and  C_8
REMARK    5  A    between atoms: C_12  and  C_13
REMARK                            x       y       z     vdW  Elec       q    Type
REMARK                         _______ _______ _______ _____ _____    ______ ____
ROOT
ATOM      1  C   UNL     1      45.176   5.861  12.481  0.00  0.00    +0.000 A 
ATOM      2  C   UNL     1      46.370   5.400  13.057  0.00  0.00    +0.000 A 
ATOM      3  C   UNL     1      47.402   6.270  13.408  0.00  0.00    +0.000 A 
ATOM      4  C   UNL     1      47.279   7.632  13.158  0.00  0.00    +0.000 A 
ATOM      5  C   UNL     1      46.116   8.158  12.578  0.00  0.00    +0.000 A 
ATOM      6  C   UNL     1      45.068   7.257  12.296  0.00  0.00    +0.000 A 
ENDROOT
BRANCH   5   7
ATOM      7  C   UNL     1      46.020   9.582  12.203  0.00  0.00    +0.000 A 
ATOM      8  C   UNL     1      47.146  10.395  12.020  0.00  0.00    +0.000 A 
ATOM      9  C   UNL     1      47.003  11.749  11.716  0.00  0.00    +0.000 A 
ATOM     10  C   UNL     1      45.726  12.264  11.592  0.00  0.00    +0.000 A 
ATOM     11  N   UNL     1      44.608  11.529  11.751  0.00  0.00    +0.000 NA
ATOM     12  C   UNL     1      44.783  10.218  12.055  0.00  0.00    +0.000 A 
ENDBRANCH   5   7
BRANCH   1  13
ATOM     13  C   UNL     1      44.089   4.904  11.988  0.00  0.00    +0.000 C 
ATOM     14  C   UNL     1      42.886   4.680  12.911  0.00  0.00    +0.000 C 
ATOM     15  C   UNL     1      42.718   5.458  11.652  0.00  0.00    +0.000 C 
BRANCH  13  16
ATOM     16  O   UNL     1      44.512   3.649  11.400  0.00  0.00    +0.000 OA
BRANCH  16  21
ATOM     17  C   UNL     1      46.745   3.231   6.268  0.00  0.00    +0.000 C 
ATOM     18  C   UNL     1      46.016   3.340   7.574  0.00  0.00    +0.000 A 
ATOM     19  C   UNL     1      45.587   2.203   8.249  0.00  0.00    +0.000 A 
ATOM     20  C   UNL     1      45.047   2.345   9.528  0.00  0.00    +0.000 A 
ATOM     21  C   UNL     1      44.936   3.608  10.100  0.00  0.00    +0.000 A 
ATOM     22  C   UNL     1      45.331   4.687   9.330  0.00  0.00    +0.000 A 
ATOM     23  N   UNL     1      45.869   4.582   8.085  0.00  0.00    +0.000 NA
ENDBRANCH  16  21
ENDBRANCH  13  16
ENDBRANCH   1  13
TORSDOF 4
ENDMDL
MODEL 4
REMARK VINA RESULT:    -7.397      1.890      2.573
REMARK INTER + INTRA:          -9.744
REMARK INTER:                  -9.051
REMARK INTRA:                  -0.693
REMARK UNBOUND:                -0.617
REMARK  Name = 
REMARK  5 active torsions:
REMARK  status: ('A' for Active; 'I' for Inactive)
REMARK    1  A    between atoms: C_1  and  C_2
REMARK    2  A    between atoms: C_5  and  O_6
REMARK    3  A    between atoms: O_6  and  C_7
REMARK    4  A    between atoms: C_7  and  C_8
REMARK    5  A    between atoms: C_12  and  C_13
REMARK                            x       y       z     vdW  Elec       q    Type
REMARK                         _______ _______ _______ _____ _____    ______ ____
ROOT
ATOM      1  C   UNL     1      44.828   6.667  12.041  0.00  0.00    +0.000 A 
ATOM      2  C   UNL     1      44.409   7.904  11.529  0.00  0.00    +0.000 A 
ATOM      3  C   UNL     1      45.122   9.079  11.768  0.00  0.00    +0.000 A 
ATOM      4  C   UNL     1      46.264   9.051  12.561  0.00  0.00    +0.000 A 
ATOM      5  C   UNL     1      46.733   7.849  13.109  0.00  0.00    +0.000 A 
ATOM      6  C   UNL     1      46.024   6.672  12.793  0.00  0.00    +0.000 A 
ENDROOT
BRANCH   5   7
ATOM      7  C   UNL     1      47.875   7.825  14.044  0.00  0.00    +0.000 A 
ATOM      8  C   UNL     1      48.492   8.990  14.517  0.00  0.00    +0.000 A 
ATOM      9  C   UNL     1      49.601   8.914  15.359  0.00  0.00    +0.000 A 
ATOM     10  C   UNL     1      50.069   7.664  15.721  0.00  0.00    +0.000 A 
ATOM     11  N   UNL     1      49.513   6.511  15.302  0.00  0.00    +0.000 NA
ATOM     12  C   UNL     1      48.441   6.621  14.477  0.00  0.00    +0.000 A 
ENDBRANCH   5   7
BRANCH   1  13
ATOM     13  C   UNL     1      43.993   5.395  11.880  0.00  0.00    +0.000 C 
ATOM     14  C   UNL     1      42.955   5.100  12.970  0.00  0.00    +0.000 C 
ATOM     15  C   UNL     1      42.506   5.520  11.613  0.00  0.00    +0.000 C 
BRANCH  13  16
ATOM     16  O   UNL     1      44.683   4.178  11.503  0.00  0.00    +0.000 OA
BRANCH  16  21
ATOM     17  C   UNL     1      46.561   3.010   6.344  0.00  0.00    +0.000 C 
ATOM     18  C   UNL     1      45.923   3.326   7.664  0.00  0.00    +0.000 A 
ATOM     19  C   UNL     1      45.432   2.313   8.480  0.00  0.00    +0.000 A 
ATOM     20  C   UNL     1      44.984   2.640   9.761  0.00  0.00    +0.000 A 
ATOM     21  C   UNL     1      45.024   3.960  10.195  0.00  0.00    +0.000 A 
ATOM     22  C   UNL     1      45.471   4.909   9.294  0.00  0.00    +0.000 A 
ATOM     23  N   UNL     1      45.923   4.623   8.042  0.00  0.00    +0.000 NA
ENDBRANCH  16  21
ENDBRANCH  13  16
ENDBRANCH   1  13
TORSDOF 4
ENDMDL
MODEL 5
REMARK VINA RESULT:    -7.288      1.763      7.138
REMARK INTER + INTRA:          -9.609
REMARK INTER:                  -8.882
REMARK INTRA:                  -0.727
REMARK UNBOUND:                -0.617
REMARK  Name = 
REMARK  5 active torsions:
REMARK  status: ('A' for Active; 'I' for Inactive)
REMARK    1  A    between atoms: C_1  and  C_2
REMARK    2  A    between atoms: C_5  and  O_6
REMARK    3  A    between atoms: O_6  and  C_7
REMARK    4  A    between atoms: C_7  and  C_8
REMARK    5  A    between atoms: C_12  and  C_13
REMARK                            x       y       z     vdW  Elec       q    Type
REMARK                         _______ _______ _______ _____ _____    ______ ____
ROOT
ATOM      1  C   UNL     1      45.369   6.251  11.835  0.00  0.00    +0.000 A 
ATOM      2  C   UNL     1      43.974   6.365  11.937  0.00  0.00    +0.000 A 
ATOM      3  C   UNL     1      43.113   5.589  11.162  0.00  0.00    +0.000 A 
ATOM      4  C   UNL     1      43.630   4.694  10.232  0.00  0.00    +0.000 A 
ATOM      5  C   UNL     1      45.015   4.536  10.074  0.00  0.00    +0.000 A 
ATOM      6  C   UNL     1      45.854   5.291  10.920  0.00  0.00    +0.000 A 
ENDROOT
BRANCH   5   7
ATOM      7  C   UNL     1      45.574   3.676   9.014  0.00  0.00    +0.000 A 
ATOM      8  C   UNL     1      46.134   4.190   7.837  0.00  0.00    +0.000 A 
ATOM      9  C   UNL     1      46.603   3.335   6.841  0.00  0.00    +0.000 A 
ATOM     10  C   UNL     1      46.510   1.970   7.047  0.00  0.00    +0.000 A 
ATOM     11  N   UNL     1      45.987   1.420   8.160  0.00  0.00    +0.000 NA
ATOM     12  C   UNL     1      45.532   2.281   9.105  0.00  0.00    +0.000 A 
ENDBRANCH   5   7
BRANCH   1  13
ATOM     13  C   UNL     1      46.319   7.178  12.596  0.00  0.00    +0.000 C 
ATOM     14  C   UNL     1      46.602   8.551  11.974  0.00  0.00    +0.000 C 
ATOM     15  C   UNL     1      45.771   8.453  13.207  0.00  0.00    +0.000 C 
BRANCH  13  16
ATOM     16  O   UNL     1      47.541   6.605  13.124  0.00  0.00    +0.000 OA
BRANCH  16  21
ATOM     17  C   UNL     1      47.956   3.329  17.663  0.00  0.00    +0.000 C 
ATOM     18  C   UNL     1      47.741   4.280  16.523  0.00  0.00    +0.000 A 
ATOM     19  C   UNL     1      48.422   5.490  16.464  0.00  0.00    +0.000 A 
ATOM     20  C   UNL     1      48.303   6.273  15.315  0.00  0.00    +0.000 A 
ATOM     21  C   UNL     1      47.506   5.842  14.259  0.00  0.00    +0.000 A 
ATOM     22  C   UNL     1      46.817   4.656  14.431  0.00  0.00    +0.000 A 
ATOM     23  N   UNL     1      46.917   3.865  15.535  0.00  0.00    +0.000 NA
ENDBRANCH  16  21
ENDBRANCH  13  16
ENDBRANCH   1  13
TORSDOF 4
ENDMDL
MODEL 6
REMARK VINA RESULT:    -6.943      3.462      7.161
REMARK INTER + INTRA:          -9.184
REMARK INTER:                  -8.345
REMARK INTRA:                  -0.839
REMARK UNBOUND:                -0.617
REMARK  Name = 
REMARK  5 active torsions:
REMARK  status: ('A' for Active; 'I' for Inactive)
REMARK    1  A    between atoms: C_1  and  C_2
REMARK    2  A    between atoms: C_5  and  O_6
REMARK    3  A    between atoms: O_6  and  C_7
REMARK    4  A    between atoms: C_7  and  C_8
REMARK    5  A    between atoms: C_12  and  C_13
REMARK                            x       y       z     vdW  Elec       q    Type
REMARK                         _______ _______ _______ _____ _____    ______ ____
ROOT
ATOM      1  C   UNL     1      45.099   6.342  11.666  0.00  0.00    +0.000 A 
ATOM      2  C   UNL     1      43.737   6.148  11.944  0.00  0.00    +0.000 A 
ATOM      3  C   UNL     1      42.998   5.135  11.333  0.00  0.00    +0.000 A 
ATOM      4  C   UNL     1      43.601   4.304  10.393  0.00  0.00    +0.000 A 
ATOM      5  C   UNL     1      44.956   4.450  10.065  0.00  0.00    +0.000 A 
ATOM      6  C   UNL     1      45.686   5.443  10.750  0.00  0.00    +0.000 A 
ENDROOT
BRANCH   5   7
ATOM      7  C   UNL     1      45.576   3.652   8.989  0.00  0.00    +0.000 A 
ATOM      8  C   UNL     1      46.143   4.231   7.847  0.00  0.00    +0.000 A 
ATOM      9  C   UNL     1      46.671   3.431   6.832  0.00  0.00    +0.000 A 
ATOM     10  C   UNL     1      46.628   2.058   6.988  0.00  0.00    +0.000 A 
ATOM     11  N   UNL     1      46.101   1.446   8.066  0.00  0.00    +0.000 NA
ATOM     12  C   UNL     1      45.589   2.254   9.029  0.00  0.00    +0.000 A 
ENDBRANCH   5   7
BRANCH   1  13
ATOM     13  C   UNL     1      45.886   7.520  12.244  0.00  0.00    +0.000 C 
ATOM     14  C   UNL     1      46.952   7.198  13.298  0.00  0.00    +0.000 C 
ATOM     15  C   UNL     1      47.366   7.639  11.937  0.00  0.00    +0.000 C 
BRANCH  13  16
ATOM     16  O   UNL     1      45.143   8.704  12.628  0.00  0.00    +0.000 OA
BRANCH  16  21
ATOM     17  C   UNL     1      44.695  12.565   8.579  0.00  0.00    +0.000 C 
ATOM     18  C   UNL     1      44.714  11.611   9.736  0.00  0.00    +0.000 A 
ATOM     19  C   UNL     1      43.807  10.560   9.810  0.00  0.00    +0.000 A 
ATOM     20  C   UNL     1      43.956   9.613  10.824  0.00  0.00    +0.000 A 
ATOM     21  C   UNL     1      44.992   9.737  11.743  0.00  0.00    +0.000 A 
ATOM     22  C   UNL     1      45.809  10.848  11.630  0.00  0.00    +0.000 A 
ATOM     23  N   UNL     1      45.695  11.784  10.649  0.00  0.00    +0.000 NA
ENDBRANCH  16  21
ENDBRANCH  13  16
ENDBRANCH   1  13
TORSDOF 4
ENDMDL
MODEL 7
REMARK VINA RESULT:    -6.417      2.283      7.668
REMARK INTER + INTRA:          -8.535
REMARK INTER:                  -7.681
REMARK INTRA:                  -0.854
REMARK UNBOUND:                -0.617
REMARK  Name = 
REMARK  5 active torsions:
REMARK  status: ('A' for Active; 'I' for Inactive)
REMARK    1  A    between atoms: C_1  and  C_2
REMARK    2  A    between atoms: C_5  and  O_6
REMARK    3  A    between atoms: O_6  and  C_7
REMARK    4  A    between atoms: C_7  and  C_8
REMARK    5  A    between atoms: C_12  and  C_13
REMARK                            x       y       z     vdW  Elec       q    Type
REMARK                         _______ _______ _______ _____ _____    ______ ____
ROOT
ATOM      1  C   UNL     1      47.337   7.380  12.856  0.00  0.00    +0.000 A 
ATOM      2  C   UNL     1      46.405   8.414  13.035  0.00  0.00    +0.000 A 
ATOM      3  C   UNL     1      45.118   8.345  12.501  0.00  0.00    +0.000 A 
ATOM      4  C   UNL     1      44.738   7.246  11.739  0.00  0.00    +0.000 A 
ATOM      5  C   UNL     1      45.624   6.182  11.516  0.00  0.00    +0.000 A 
ATOM      6  C   UNL     1      46.894   6.256  12.125  0.00  0.00    +0.000 A 
ENDROOT
BRANCH   5   7
ATOM      7  C   UNL     1      45.273   5.066  10.616  0.00  0.00    +0.000 A 
ATOM      8  C   UNL     1      45.644   5.035   9.266  0.00  0.00    +0.000 A 
ATOM      9  C   UNL     1      45.243   3.982   8.443  0.00  0.00    +0.000 A 
ATOM     10  C   UNL     1      44.482   2.968   8.995  0.00  0.00    +0.000 A 
ATOM     11  N   UNL     1      44.101   2.942  10.287  0.00  0.00    +0.000 NA
ATOM     12  C   UNL     1      44.500   3.986  11.057  0.00  0.00    +0.000 A 
ENDBRANCH   5   7
BRANCH   1  13
ATOM     13  C   UNL     1      48.784   7.497  13.339  0.00  0.00    +0.000 C 
ATOM     14  C   UNL     1      49.844   7.843  12.287  0.00  0.00    +0.000 C 
ATOM     15  C   UNL     1      49.462   8.853  13.313  0.00  0.00    +0.000 C 
BRANCH  13  16
ATOM     16  O   UNL     1      49.281   6.472  14.234  0.00  0.00    +0.000 OA
BRANCH  16  21
ATOM     17  C   UNL     1      47.642   5.860  19.568  0.00  0.00    +0.000 C 
ATOM     18  C   UNL     1      47.954   6.099  18.121  0.00  0.00    +0.000 A 
ATOM     19  C   UNL     1      48.603   7.259  17.712  0.00  0.00    +0.000 A 
ATOM     20  C   UNL     1      49.005   7.371  16.381  0.00  0.00    +0.000 A 
ATOM     21  C   UNL     1      48.747   6.337  15.487  0.00  0.00    +0.000 A 
ATOM     22  C   UNL     1      48.043   5.248  15.967  0.00  0.00    +0.000 A 
ATOM     23  N   UNL     1      47.644   5.104  17.261  0.00  0.00    +0.000 NA
ENDBRANCH  16  21
ENDBRANCH  13  16
ENDBRANCH   1  13
TORSDOF 4
ENDMDL
MODEL 8
REMARK VINA RESULT:    -6.062      3.144      7.794
REMARK INTER + INTRA:          -8.096
REMARK INTER:                  -8.139
REMARK INTRA:                   0.043
REMARK UNBOUND:                -0.617
REMARK  Name = 
REMARK  5 active torsions:
REMARK  status: ('A' for Active; 'I' for Inactive)
REMARK    1  A    between atoms: C_1  and  C_2
REMARK    2  A    between atoms: C_5  and  O_6
REMARK    3  A    between atoms: O_6  and  C_7
REMARK    4  A    between atoms: C_7  and  C_8
REMARK    5  A    between atoms: C_12  and  C_13
REMARK                            x       y       z     vdW  Elec       q    Type
REMARK                         _______ _______ _______ _____ _____    ______ ____
ROOT
ATOM      1  C   UNL     1      47.856   5.330  15.468  0.00  0.00    +0.000 A 
ATOM      2  C   UNL     1      48.600   6.448  15.061  0.00  0.00    +0.000 A 
ATOM      3  C   UNL     1      48.397   7.056  13.822  0.00  0.00    +0.000 A 
ATOM      4  C   UNL     1      47.459   6.535  12.937  0.00  0.00    +0.000 A 
ATOM      5  C   UNL     1      46.687   5.415  13.279  0.00  0.00    +0.000 A 
ATOM      6  C   UNL     1      46.875   4.867  14.565  0.00  0.00    +0.000 A 
ENDROOT
BRANCH   5   7
ATOM      7  C   UNL     1      45.773   4.786  12.306  0.00  0.00    +0.000 A 
ATOM      8  C   UNL     1      45.474   5.362  11.065  0.00  0.00    +0.000 A 
ATOM      9  C   UNL     1      44.563   4.754  10.200  0.00  0.00    +0.000 A 
ATOM     10  C   UNL     1      43.973   3.568  10.595  0.00  0.00    +0.000 A 
ATOM     11  N   UNL     1      44.226   2.966  11.773  0.00  0.00    +0.000 NA
ATOM     12  C   UNL     1      45.110   3.589  12.593  0.00  0.00    +0.000 A 
ENDBRANCH   5   7
BRANCH   1  13
ATOM     13  C   UNL     1      48.151   4.589  16.774  0.00  0.00    +0.000 C 
ATOM     14  C   UNL     1      47.091   4.671  17.878  0.00  0.00    +0.000 C 
ATOM     15  C   UNL     1      47.303   3.390  17.148  0.00  0.00    +0.000 C 
BRANCH  13  16
ATOM     16  O   UNL     1      49.478   4.726  17.341  0.00  0.00    +0.000 OA
BRANCH  16  21
ATOM     17  C   UNL     1      53.145   0.478  17.456  0.00  0.00    +0.000 C 
ATOM     18  C   UNL     1      52.128   1.575  17.564  0.00  0.00    +0.000 A 
ATOM     19  C   UNL     1      52.464   2.810  18.107  0.00  0.00    +0.000 A 
ATOM     20  C   UNL     1      51.530   3.845  18.051  0.00  0.00    +0.000 A 
ATOM     21  C   UNL     1      50.287   3.629  17.467  0.00  0.00    +0.000 A 
ATOM     22  C   UNL     1      50.017   2.352  17.008  0.00  0.00    +0.000 A 
ATOM     23  N   UNL     1      50.908   1.324  17.040  0.00  0.00    +0.000 NA
ENDBRANCH  16  21
ENDBRANCH  13  16
ENDBRANCH   1  13
TORSDOF 4
ENDMDL
MODEL 9
REMARK VINA RESULT:    -5.859      3.435      8.055
REMARK INTER + INTRA:          -7.846
REMARK INTER:                  -7.466
REMARK INTRA:                  -0.380
REMARK UNBOUND:                -0.617
REMARK  Name = 
REMARK  5 active torsions:
REMARK  status: ('A' for Active; 'I' for Inactive)
REMARK    1  A    between atoms: C_1  and  C_2
REMARK    2  A    between atoms: C_5  and  O_6
REMARK    3  A    between atoms: O_6  and  C_7
REMARK    4  A    between atoms: C_7  and  C_8
REMARK    5  A    between atoms: C_12  and  C_13
REMARK                            x       y       z     vdW  Elec       q    Type
REMARK                         _______ _______ _______ _____ _____    ______ ____
ROOT
ATOM      1  C   UNL     1      48.825   7.001  14.152  0.00  0.00    +0.000 A 
ATOM      2  C   UNL     1      49.258   7.631  12.975  0.00  0.00    +0.000 A 
ATOM      3  C   UNL     1      48.513   7.582  11.797  0.00  0.00    +0.000 A 
ATOM      4  C   UNL     1      47.321   6.866  11.756  0.00  0.00    +0.000 A 
ATOM      5  C   UNL     1      46.836   6.207  12.895  0.00  0.00    +0.000 A 
ATOM      6  C   UNL     1      47.583   6.332  14.084  0.00  0.00    +0.000 A 
ENDROOT
BRANCH   5   7
ATOM      7  C   UNL     1      45.635   5.351  12.833  0.00  0.00    +0.000 A 
ATOM      8  C   UNL     1      44.335   5.861  12.934  0.00  0.00    +0.000 A 
ATOM      9  C   UNL     1      43.233   5.006  12.922  0.00  0.00    +0.000 A 
ATOM     10  C   UNL     1      43.457   3.646  12.799  0.00  0.00    +0.000 A 
ATOM     11  N   UNL     1      44.683   3.100  12.692  0.00  0.00    +0.000 NA
ATOM     12  C   UNL     1      45.733   3.960  12.717  0.00  0.00    +0.000 A 
ENDBRANCH   5   7
BRANCH   1  13
ATOM     13  C   UNL     1      49.690   6.952  15.413  0.00  0.00    +0.000 C 
ATOM     14  C   UNL     1      51.083   7.585  15.329  0.00  0.00    +0.000 C 
ATOM     15  C   UNL     1      50.017   8.246  16.132  0.00  0.00    +0.000 C 
BRANCH  13  16
ATOM     16  O   UNL     1      49.751   5.700  16.140  0.00  0.00    +0.000 OA
BRANCH  16  21
ATOM     17  C   UNL     1      47.505   5.916  21.280  0.00  0.00    +0.000 C 
ATOM     18  C   UNL     1      48.094   5.711  19.916  0.00  0.00    +0.000 A 
ATOM     19  C   UNL     1      47.278   5.597  18.796  0.00  0.00    +0.000 A 
ATOM     20  C   UNL     1      47.872   5.557  17.534  0.00  0.00    +0.000 A 
ATOM     21  C   UNL     1      49.256   5.621  17.414  0.00  0.00    +0.000 A 
ATOM     22  C   UNL     1      49.990   5.671  18.585  0.00  0.00    +0.000 A 
ATOM     23  N   UNL     1      49.443   5.720  19.830  0.00  0.00    +0.000 NA
ENDBRANCH  16  21
ENDBRANCH  13  16
ENDBRANCH   1  13
TORSDOF 4
ENDMDL
