MODEL 1
REMARK VINA RESULT:    -8.710      0.000      0.000
REMARK INTER + INTRA:         -12.911
REMARK INTER:                 -11.765
REMARK INTRA:                  -1.145
REMARK UNBOUND:                -1.145
REMARK  Name = 
REMARK  8 active torsions:
REMARK  status: ('A' for Active; 'I' for Inactive)
REMARK    1  A    between atoms: C_1  and  C_2
REMARK    2  A    between atoms: C_4  and  C_5
REMARK    3  A    between atoms: C_12  and  C_13
REMARK    4  A    between atoms: C_13  and  C_14
REMARK    5  A    between atoms: C_13  and  C_15
REMARK    6  A    between atoms: C_15  and  N_16
REMARK    7  A    between atoms: N_16  and  C_17
REMARK    8  A    between atoms: C_20  and  C_21
REMARK                            x       y       z     vdW  Elec       q    Type
REMARK                         _______ _______ _______ _____ _____    ______ ____
ROOT
ATOM      1  C   UNL     1      44.490   4.600  12.098  0.00  0.00    +0.000 C 
ATOM      2  C   UNL     1      43.409   4.396  13.169  0.00  0.00    +0.000 C 
ENDROOT
BRANCH   1   8
ATOM      3  C   UNL     1      48.498   7.685  11.916  0.00  0.00    +0.000 C 
ATOM      4  C   UNL     1      47.684   6.659  12.652  0.00  0.00    +0.000 A 
ATOM      5  C   UNL     1      48.094   6.193  13.912  0.00  0.00    +0.000 A 
ATOM      6  C   UNL     1      47.362   5.222  14.614  0.00  0.00    +0.000 A 
ATOM      7  C   UNL     1      46.197   4.728  13.995  0.00  0.00    +0.000 A 
ATOM      8  C   UNL     1      45.752   5.178  12.738  0.00  0.00    +0.000 A 
ATOM      9  C   UNL     1      46.508   6.154  12.079  0.00  0.00    +0.000 A 
BRANCH   6  10
ATOM     10  C   UNL     1      47.793   4.715  15.942  0.00  0.00    +0.000 A 
ATOM     11  C   UNL     1      47.318   3.486  16.440  0.00  0.00    +0.000 A 
ATOM     12  C   UNL     1      47.756   2.969  17.663  0.00  0.00    +0.000 A 
ATOM     13  C   UNL     1      48.667   3.681  18.433  0.00  0.00    +0.000 A 
ATOM     14  C   UNL     1      49.133   4.912  17.982  0.00  0.00    +0.000 A 
ATOM     15  C   UNL     1      48.704   5.420  16.750  0.00  0.00    +0.000 A 
ENDBRANCH   6  10
ENDBRANCH   1   8
BRANCH   1  16
ATOM     16  C   UNL     1      44.012   5.489  10.923  0.00  0.00    +0.000 C 
BRANCH  16  17
ATOM     17  N   UNL     1      43.673   4.707   9.721  0.00  0.00    +0.000 N 
ATOM     18  H   UNL     1      43.159   5.253   9.033  0.00  0.00    +0.000 HD
BRANCH  17  19
ATOM     19  C   UNL     1      44.711   3.989   9.101  0.00  0.00    +0.000 A 
ATOM     20  C   UNL     1      44.805   2.593   9.150  0.00  0.00    +0.000 A 
ATOM     21  C   UNL     1      45.805   1.920   8.449  0.00  0.00    +0.000 A 
ATOM     22  C   UNL     1      46.686   2.664   7.680  0.00  0.00    +0.000 A 
ATOM     23  N   UNL     1      46.629   4.019   7.565  0.00  0.00    +0.000 NA
ATOM     24  C   UNL     1      45.634   4.628   8.263  0.00  0.00    +0.000 A 
BRANCH  22  25
ATOM     25  C   UNL     1      47.750   1.956   6.901  0.00  0.00    +0.000 C 
ATOM     26  N   UNL     1      48.582   2.757   6.173  0.00  0.00    +0.000 N 
ATOM     27  O   UNL     1      47.872   0.737   6.905  0.00  0.00    +0.000 OA
ATOM     28  H   UNL     1      48.436   3.759   6.170  0.00  0.00    +0.000 HD
ATOM     29  H   UNL     1      49.297   2.338   5.593  0.00  0.00    +0.000 HD
ENDBRANCH  22  25
ENDBRANCH  17  19
ENDBRANCH  16  17
ENDBRANCH   1  16
TORSDOF 6
ENDMDL
MODEL 2
REMARK VINA RESULT:    -8.371      1.374      3.971
REMARK INTER + INTRA:         -12.452
REMARK INTER:                 -11.273
REMARK INTRA:                  -1.179
REMARK UNBOUND:                -1.145
REMARK  Name = 
REMARK  8 active torsions:
REMARK  status: ('A' for Active; 'I' for Inactive)
REMARK    1  A    between atoms: C_1  and  C_2
REMARK    2  A    between atoms: C_4  and  C_5
REMARK    3  A    between atoms: C_12  and  C_13
REMARK    4  A    between atoms: C_13  and  C_14
REMARK    5  A    between atoms: C_13  and  C_15
REMARK    6  A    between atoms: C_15  and  N_16
REMARK    7  A    between atoms: N_16  and  C_17
REMARK    8  A    between atoms: C_20  and  C_21
REMARK                            x       y       z     vdW  Elec       q    Type
REMARK                         _______ _______ _______ _____ _____    ______ ____
ROOT
ATOM      1  C   UNL     1      43.697   5.722  12.188  0.00  0.00    +0.000 C 
ATOM      2  C   UNL     1      43.405   6.978  11.356  0.00  0.00    +0.000 C 
ENDROOT
BRANCH   1   8
ATOM      3  C   UNL     1      47.299   3.987  15.292  0.00  0.00    +0.000 C 
ATOM      4  C   UNL     1      46.859   4.950  14.227  0.00  0.00    +0.000 A 
ATOM      5  C   UNL     1      47.739   5.936  13.751  0.00  0.00    +0.000 A 
ATOM      6  C   UNL     1      47.349   6.861  12.769  0.00  0.00    +0.000 A 
ATOM      7  C   UNL     1      46.031   6.761  12.284  0.00  0.00    +0.000 A 
ATOM      8  C   UNL     1      45.125   5.781  12.731  0.00  0.00    +0.000 A 
ATOM      9  C   UNL     1      45.561   4.874  13.704  0.00  0.00    +0.000 A 
BRANCH   6  10
ATOM     10  C   UNL     1      48.267   7.915  12.266  0.00  0.00    +0.000 A 
ATOM     11  C   UNL     1      49.603   7.617  11.932  0.00  0.00    +0.000 A 
ATOM     12  C   UNL     1      50.463   8.585  11.405  0.00  0.00    +0.000 A 
ATOM     13  C   UNL     1      50.015   9.887  11.220  0.00  0.00    +0.000 A 
ATOM     14  C   UNL     1      48.709  10.220  11.567  0.00  0.00    +0.000 A 
ATOM     15  C   UNL     1      47.846   9.244  12.080  0.00  0.00    +0.000 A 
ENDBRANCH   6  10
ENDBRANCH   1   8
BRANCH   1  16
ATOM     16  C   UNL     1      43.462   4.410  11.399  0.00  0.00    +0.000 C 
BRANCH  16  17
ATOM     17  N   UNL     1      43.574   4.596   9.942  0.00  0.00    +0.000 N 
ATOM     18  H   UNL     1      43.607   5.579   9.676  0.00  0.00    +0.000 HD
BRANCH  17  19
ATOM     19  C   UNL     1      44.577   3.874   9.271  0.00  0.00    +0.000 A 
ATOM     20  C   UNL     1      44.670   2.478   9.320  0.00  0.00    +0.000 A 
ATOM     21  C   UNL     1      45.631   1.800   8.569  0.00  0.00    +0.000 A 
ATOM     22  C   UNL     1      46.473   2.540   7.754  0.00  0.00    +0.000 A 
ATOM     23  N   UNL     1      46.413   3.895   7.638  0.00  0.00    +0.000 NA
ATOM     24  C   UNL     1      45.457   4.509   8.384  0.00  0.00    +0.000 A 
BRANCH  22  25
ATOM     25  C   UNL     1      47.493   1.827   6.923  0.00  0.00    +0.000 C 
ATOM     26  N   UNL     1      48.525   2.596   6.465  0.00  0.00    +0.000 N 
ATOM     27  O   UNL     1      47.416   0.633   6.661  0.00  0.00    +0.000 OA
ATOM     28  H   UNL     1      48.543   3.586   6.677  0.00  0.00    +0.000 HD
ATOM     29  H   UNL     1      49.226   2.184   5.864  0.00  0.00    +0.000 HD
ENDBRANCH  22  25
ENDBRANCH  17  19
ENDBRANCH  16  17
ENDBRANCH   1  16
TORSDOF 6
ENDMDL
MODEL 3
REMARK VINA RESULT:    -8.148      3.002      5.496
REMARK INTER + INTRA:         -12.152
REMARK INTER:                 -11.127
REMARK INTRA:                  -1.024
REMARK UNBOUND:                -1.145
REMARK  Name = 
REMARK  8 active torsions:
REMARK  status: ('A' for Active; 'I' for Inactive)
REMARK    1  A    between atoms: C_1  and  C_2
REMARK    2  A    between atoms: C_4  and  C_5
REMARK    3  A    between atoms: C_12  and  C_13
REMARK    4  A    between atoms: C_13  and  C_14
REMARK    5  A    between atoms: C_13  and  C_15
REMARK    6  A    between atoms: C_15  and  N_16
REMARK    7  A    between atoms: N_16  and  C_17
REMARK    8  A    between atoms: C_20  and  C_21
REMARK                            x       y       z     vdW  Elec       q    Type
REMARK                         _______ _______ _______ _____ _____    ______ ____
ROOT
ATOM      1  C   UNL     1      45.366   5.001  11.704  0.00  0.00    +0.000 C 
ATOM      2  C   UNL     1      45.810   4.087  12.854  0.00  0.00    +0.000 C 
ENDROOT
BRANCH   1   8
ATOM      3  C   UNL     1      48.072   8.460  14.222  0.00  0.00    +0.000 C 
ATOM      4  C   UNL     1      46.956   8.126  13.273  0.00  0.00    +0.000 A 
ATOM      5  C   UNL     1      46.148   9.142  12.738  0.00  0.00    +0.000 A 
ATOM      6  C   UNL     1      45.087   8.857  11.863  0.00  0.00    +0.000 A 
ATOM      7  C   UNL     1      44.863   7.503  11.549  0.00  0.00    +0.000 A 
ATOM      8  C   UNL     1      45.658   6.459  12.060  0.00  0.00    +0.000 A 
ATOM      9  C   UNL     1      46.711   6.791  12.920  0.00  0.00    +0.000 A 
BRANCH   6  10
ATOM     10  C   UNL     1      44.220   9.923  11.300  0.00  0.00    +0.000 A 
ATOM     11  C   UNL     1      43.017   9.608  10.638  0.00  0.00    +0.000 A 
ATOM     12  C   UNL     1      42.162  10.601  10.151  0.00  0.00    +0.000 A 
ATOM     13  C   UNL     1      42.501  11.941  10.294  0.00  0.00    +0.000 A 
ATOM     14  C   UNL     1      43.696  12.285  10.919  0.00  0.00    +0.000 A 
ATOM     15  C   UNL     1      44.542  11.287  11.418  0.00  0.00    +0.000 A 
ENDBRANCH   6  10
ENDBRANCH   1   8
BRANCH   1  16
ATOM     16  C   UNL     1      43.875   4.815  11.329  0.00  0.00    +0.000 C 
BRANCH  16  17
ATOM     17  N   UNL     1      43.663   4.735   9.873  0.00  0.00    +0.000 N 
ATOM     18  H   UNL     1      43.581   5.653   9.440  0.00  0.00    +0.000 HD
BRANCH  17  19
ATOM     19  C   UNL     1      44.539   3.922   9.133  0.00  0.00    +0.000 A 
ATOM     20  C   UNL     1      45.522   4.441   8.283  0.00  0.00    +0.000 A 
ATOM     21  C   UNL     1      46.423   3.597   7.633  0.00  0.00    +0.000 A 
ATOM     22  C   UNL     1      46.339   2.234   7.873  0.00  0.00    +0.000 A 
ATOM     23  N   UNL     1      45.428   1.670   8.711  0.00  0.00    +0.000 NA
ATOM     24  C   UNL     1      44.575   2.535   9.324  0.00  0.00    +0.000 A 
BRANCH  22  25
ATOM     25  C   UNL     1      47.313   1.316   7.204  0.00  0.00    +0.000 C 
ATOM     26  N   UNL     1      48.387   1.921   6.615  0.00  0.00    +0.000 N 
ATOM     27  O   UNL     1      47.164   0.101   7.175  0.00  0.00    +0.000 OA
ATOM     28  H   UNL     1      48.465   2.930   6.633  0.00  0.00    +0.000 HD
ATOM     29  H   UNL     1      49.061   1.360   6.111  0.00  0.00    +0.000 HD
ENDBRANCH  22  25
ENDBRANCH  17  19
ENDBRANCH  16  17
ENDBRANCH   1  16
TORSDOF 6
ENDMDL
MODEL 4
REMARK VINA RESULT:    -7.826      3.351      7.838
REMARK INTER + INTRA:         -11.716
REMARK INTER:                 -10.597
REMARK INTRA:                  -1.119
REMARK UNBOUND:                -1.145
REMARK  Name = 
REMARK  8 active torsions:
REMARK  status: ('A' for Active; 'I' for Inactive)
REMARK    1  A    between atoms: C_1  and  C_2
REMARK    2  A    between atoms: C_4  and  C_5
REMARK    3  A    between atoms: C_12  and  C_13
REMARK    4  A    between atoms: C_13  and  C_14
REMARK    5  A    between atoms: C_13  and  C_15
REMARK    6  A    between atoms: C_15  and  N_16
REMARK    7  A    between atoms: N_16  and  C_17
REMARK    8  A    between atoms: C_20  and  C_21
REMARK                            x       y       z     vdW  Elec       q    Type
REMARK                         _______ _______ _______ _____ _____    ______ ____
ROOT
ATOM      1  C   UNL     1      45.148   7.017  11.126  0.00  0.00    +0.000 C 
ATOM      2  C   UNL     1      43.794   7.739  11.116  0.00  0.00    +0.000 C 
ENDROOT
BRANCH   1   8
ATOM      3  C   UNL     1      43.197   2.461  12.156  0.00  0.00    +0.000 C 
ATOM      4  C   UNL     1      44.017   3.349  11.264  0.00  0.00    +0.000 A 
ATOM      5  C   UNL     1      44.643   2.826  10.120  0.00  0.00    +0.000 A 
ATOM      6  C   UNL     1      45.429   3.629   9.278  0.00  0.00    +0.000 A 
ATOM      7  C   UNL     1      45.571   4.984   9.635  0.00  0.00    +0.000 A 
ATOM      8  C   UNL     1      44.952   5.543  10.768  0.00  0.00    +0.000 A 
ATOM      9  C   UNL     1      44.169   4.708  11.573  0.00  0.00    +0.000 A 
BRANCH   6  10
ATOM     10  C   UNL     1      46.104   3.085   8.072  0.00  0.00    +0.000 A 
ATOM     11  C   UNL     1      46.518   1.739   8.014  0.00  0.00    +0.000 A 
ATOM     12  C   UNL     1      47.103   1.198   6.865  0.00  0.00    +0.000 A 
ATOM     13  C   UNL     1      47.311   1.998   5.748  0.00  0.00    +0.000 A 
ATOM     14  C   UNL     1      46.939   3.338   5.784  0.00  0.00    +0.000 A 
ATOM     15  C   UNL     1      46.339   3.872   6.930  0.00  0.00    +0.000 A 
ENDBRANCH   6  10
ENDBRANCH   1   8
BRANCH   1  16
ATOM     16  C   UNL     1      45.898   7.160  12.474  0.00  0.00    +0.000 C 
BRANCH  16  17
ATOM     17  N   UNL     1      47.176   6.428  12.492  0.00  0.00    +0.000 N 
ATOM     18  H   UNL     1      47.971   7.025  12.276  0.00  0.00    +0.000 HD
BRANCH  17  19
ATOM     19  C   UNL     1      47.453   5.635  13.620  0.00  0.00    +0.000 A 
ATOM     20  C   UNL     1      47.986   6.157  14.804  0.00  0.00    +0.000 A 
ATOM     21  C   UNL     1      48.165   5.345  15.925  0.00  0.00    +0.000 A 
ATOM     22  C   UNL     1      47.778   4.017  15.845  0.00  0.00    +0.000 A 
ATOM     23  N   UNL     1      47.226   3.456  14.735  0.00  0.00    +0.000 NA
ATOM     24  C   UNL     1      47.066   4.289  13.671  0.00  0.00    +0.000 A 
BRANCH  22  25
ATOM     25  C   UNL     1      47.940   3.138  17.046  0.00  0.00    +0.000 C 
ATOM     26  N   UNL     1      46.786   2.800  17.692  0.00  0.00    +0.000 N 
ATOM     27  O   UNL     1      49.033   2.747  17.436  0.00  0.00    +0.000 OA
ATOM     28  H   UNL     1      45.901   3.164  17.359  0.00  0.00    +0.000 HD
ATOM     29  H   UNL     1      46.830   2.242  18.534  0.00  0.00    +0.000 HD
ENDBRANCH  22  25
ENDBRANCH  17  19
ENDBRANCH  16  17
ENDBRANCH   1  16
TORSDOF 6
ENDMDL
MODEL 5
REMARK VINA RESULT:    -7.760      2.607      4.029
REMARK INTER + INTRA:         -11.627
REMARK INTER:                 -10.655
REMARK INTRA:                  -0.972
REMARK UNBOUND:                -1.145
REMARK  Name = 
REMARK  8 active torsions:
REMARK  status: ('A' for Active; 'I' for Inactive)
REMARK    1  A    between atoms: C_1  and  C_2
REMARK    2  A    between atoms: C_4  and  C_5
REMARK    3  A    between atoms: C_12  and  C_13
REMARK    4  A    between atoms: C_13  and  C_14
REMARK    5  A    between atoms: C_13  and  C_15
REMARK    6  A    between atoms: C_15  and  N_16
REMARK    7  A    between atoms: N_16  and  C_17
REMARK    8  A    between atoms: C_20  and  C_21
REMARK                            x       y       z     vdW  Elec       q    Type
REMARK                         _______ _______ _______ _____ _____    ______ ____
ROOT
ATOM      1  C   UNL     1      45.503   5.096  11.621  0.00  0.00    +0.000 C 
ATOM      2  C   UNL     1      45.959   4.280  12.838  0.00  0.00    +0.000 C 
ENDROOT
BRANCH   1   8
ATOM      3  C   UNL     1      44.317  10.015  11.772  0.00  0.00    +0.000 C 
ATOM      4  C   UNL     1      45.348   8.926  11.861  0.00  0.00    +0.000 A 
ATOM      5  C   UNL     1      46.702   9.242  12.063  0.00  0.00    +0.000 A 
ATOM      6  C   UNL     1      47.690   8.247  12.133  0.00  0.00    +0.000 A 
ATOM      7  C   UNL     1      47.264   6.912  11.986  0.00  0.00    +0.000 A 
ATOM      8  C   UNL     1      45.916   6.558  11.793  0.00  0.00    +0.000 A 
ATOM      9  C   UNL     1      44.965   7.583  11.739  0.00  0.00    +0.000 A 
BRANCH   6  10
ATOM     10  C   UNL     1      49.126   8.570  12.334  0.00  0.00    +0.000 A 
ATOM     11  C   UNL     1      49.875   7.949  13.352  0.00  0.00    +0.000 A 
ATOM     12  C   UNL     1      51.240   8.201  13.519  0.00  0.00    +0.000 A 
ATOM     13  C   UNL     1      51.888   9.102  12.683  0.00  0.00    +0.000 A 
ATOM     14  C   UNL     1      51.169   9.753  11.686  0.00  0.00    +0.000 A 
ATOM     15  C   UNL     1      49.806   9.486  11.512  0.00  0.00    +0.000 A 
ENDBRANCH   6  10
ENDBRANCH   1   8
BRANCH   1  16
ATOM     16  C   UNL     1      43.981   4.982  11.356  0.00  0.00    +0.000 C 
BRANCH  16  17
ATOM     17  N   UNL     1      43.666   4.806   9.928  0.00  0.00    +0.000 N 
ATOM     18  H   UNL     1      43.447   5.686   9.466  0.00  0.00    +0.000 HD
BRANCH  17  19
ATOM     19  C   UNL     1      44.568   4.057   9.152  0.00  0.00    +0.000 A 
ATOM     20  C   UNL     1      45.541   4.647   8.337  0.00  0.00    +0.000 A 
ATOM     21  C   UNL     1      46.468   3.862   7.649  0.00  0.00    +0.000 A 
ATOM     22  C   UNL     1      46.418   2.487   7.815  0.00  0.00    +0.000 A 
ATOM     23  N   UNL     1      45.518   1.855   8.616  0.00  0.00    +0.000 NA
ATOM     24  C   UNL     1      44.640   2.663   9.269  0.00  0.00    +0.000 A 
BRANCH  22  25
ATOM     25  C   UNL     1      47.421   1.632   7.105  0.00  0.00    +0.000 C 
ATOM     26  N   UNL     1      48.433   2.303   6.480  0.00  0.00    +0.000 N 
ATOM     27  O   UNL     1      47.344   0.410   7.075  0.00  0.00    +0.000 OA
ATOM     28  H   UNL     1      48.450   3.315   6.501  0.00  0.00    +0.000 HD
ATOM     29  H   UNL     1      49.120   1.785   5.948  0.00  0.00    +0.000 HD
ENDBRANCH  22  25
ENDBRANCH  17  19
ENDBRANCH  16  17
ENDBRANCH   1  16
TORSDOF 6
ENDMDL
MODEL 6
REMARK VINA RESULT:    -6.805      2.834      4.472
REMARK INTER + INTRA:         -10.337
REMARK INTER:                  -9.023
REMARK INTRA:                  -1.314
REMARK UNBOUND:                -1.145
REMARK  Name = 
REMARK  8 active torsions:
REMARK  status: ('A' for Active; 'I' for Inactive)
REMARK    1  A    between atoms: C_1  and  C_2
REMARK    2  A    between atoms: C_4  and  C_5
REMARK    3  A    between atoms: C_12  and  C_13
REMARK    4  A    between atoms: C_13  and  C_14
REMARK    5  A    between atoms: C_13  and  C_15
REMARK    6  A    between atoms: C_15  and  N_16
REMARK    7  A    between atoms: N_16  and  C_17
REMARK    8  A    between atoms: C_20  and  C_21
REMARK                            x       y       z     vdW  Elec       q    Type
REMARK                         _______ _______ _______ _____ _____    ______ ____
ROOT
ATOM      1  C   UNL     1      48.375   8.494  12.939  0.00  0.00    +0.000 C 
ATOM      2  C   UNL     1      49.119   7.392  12.174  0.00  0.00    +0.000 C 
ENDROOT
BRANCH   1   8
ATOM      3  C   UNL     1      48.160  10.130  17.725  0.00  0.00    +0.000 C 
ATOM      4  C   UNL     1      48.349   9.007  16.746  0.00  0.00    +0.000 A 
ATOM      5  C   UNL     1      48.633   7.708  17.199  0.00  0.00    +0.000 A 
ATOM      6  C   UNL     1      48.832   6.642  16.306  0.00  0.00    +0.000 A 
ATOM      7  C   UNL     1      48.740   6.934  14.931  0.00  0.00    +0.000 A 
ATOM      8  C   UNL     1      48.447   8.221  14.442  0.00  0.00    +0.000 A 
ATOM      9  C   UNL     1      48.247   9.250  15.369  0.00  0.00    +0.000 A 
BRANCH   6  10
ATOM     10  C   UNL     1      49.144   5.267  16.773  0.00  0.00    +0.000 A 
ATOM     11  C   UNL     1      48.211   4.221  16.630  0.00  0.00    +0.000 A 
ATOM     12  C   UNL     1      48.511   2.910  17.013  0.00  0.00    +0.000 A 
ATOM     13  C   UNL     1      49.747   2.615  17.574  0.00  0.00    +0.000 A 
ATOM     14  C   UNL     1      50.680   3.632  17.755  0.00  0.00    +0.000 A 
ATOM     15  C   UNL     1      50.382   4.940  17.355  0.00  0.00    +0.000 A 
ENDBRANCH   6  10
ENDBRANCH   1   8
BRANCH   1  16
ATOM     16  C   UNL     1      46.904   8.658  12.481  0.00  0.00    +0.000 C 
BRANCH  16  17
ATOM     17  N   UNL     1      45.969   7.840  13.273  0.00  0.00    +0.000 N 
ATOM     18  H   UNL     1      45.158   8.369  13.588  0.00  0.00    +0.000 HD
BRANCH  17  19
ATOM     19  C   UNL     1      45.568   6.606  12.732  0.00  0.00    +0.000 A 
ATOM     20  C   UNL     1      45.970   5.376  13.266  0.00  0.00    +0.000 A 
ATOM     21  C   UNL     1      45.479   4.178  12.746  0.00  0.00    +0.000 A 
ATOM     22  C   UNL     1      44.562   4.236  11.708  0.00  0.00    +0.000 A 
ATOM     23  N   UNL     1      44.108   5.399  11.166  0.00  0.00    +0.000 NA
ATOM     24  C   UNL     1      44.612   6.539  11.710  0.00  0.00    +0.000 A 
BRANCH  22  25
ATOM     25  C   UNL     1      44.006   2.962  11.155  0.00  0.00    +0.000 C 
ATOM     26  N   UNL     1      44.743   2.376  10.165  0.00  0.00    +0.000 N 
ATOM     27  O   UNL     1      42.957   2.470  11.552  0.00  0.00    +0.000 OA
ATOM     28  H   UNL     1      45.591   2.824   9.841  0.00  0.00    +0.000 HD
ATOM     29  H   UNL     1      44.401   1.534   9.722  0.00  0.00    +0.000 HD
ENDBRANCH  22  25
ENDBRANCH  17  19
ENDBRANCH  16  17
ENDBRANCH   1  16
TORSDOF 6
ENDMDL
MODEL 7
REMARK VINA RESULT:    -6.768      4.169      7.514
REMARK INTER + INTRA:         -10.287
REMARK INTER:                  -8.778
REMARK INTRA:                  -1.509
REMARK UNBOUND:                -1.145
REMARK  Name = 
REMARK  8 active torsions:
REMARK  status: ('A' for Active; 'I' for Inactive)
REMARK    1  A    between atoms: C_1  and  C_2
REMARK    2  A    between atoms: C_4  and  C_5
REMARK    3  A    between atoms: C_12  and  C_13
REMARK    4  A    between atoms: C_13  and  C_14
REMARK    5  A    between atoms: C_13  and  C_15
REMARK    6  A    between atoms: C_15  and  N_16
REMARK    7  A    between atoms: N_16  and  C_17
REMARK    8  A    between atoms: C_20  and  C_21
REMARK                            x       y       z     vdW  Elec       q    Type
REMARK                         _______ _______ _______ _____ _____    ______ ____
ROOT
ATOM      1  C   UNL     1      49.022   8.486  12.019  0.00  0.00    +0.000 C 
ATOM      2  C   UNL     1      49.409   9.897  12.483  0.00  0.00    +0.000 C 
ENDROOT
BRANCH   1   8
ATOM      3  C   UNL     1      44.460  10.667  11.795  0.00  0.00    +0.000 C 
ATOM      4  C   UNL     1      45.304   9.425  11.798  0.00  0.00    +0.000 A 
ATOM      5  C   UNL     1      44.705   8.156  11.735  0.00  0.00    +0.000 A 
ATOM      6  C   UNL     1      45.469   6.978  11.755  0.00  0.00    +0.000 A 
ATOM      7  C   UNL     1      46.867   7.123  11.846  0.00  0.00    +0.000 A 
ATOM      8  C   UNL     1      47.502   8.378  11.902  0.00  0.00    +0.000 A 
ATOM      9  C   UNL     1      46.701   9.525  11.870  0.00  0.00    +0.000 A 
BRANCH   6  10
ATOM     10  C   UNL     1      44.846   5.631  11.699  0.00  0.00    +0.000 A 
ATOM     11  C   UNL     1      44.261   5.052  12.842  0.00  0.00    +0.000 A 
ATOM     12  C   UNL     1      43.621   3.810  12.793  0.00  0.00    +0.000 A 
ATOM     13  C   UNL     1      43.570   3.101  11.600  0.00  0.00    +0.000 A 
ATOM     14  C   UNL     1      44.163   3.633  10.459  0.00  0.00    +0.000 A 
ATOM     15  C   UNL     1      44.789   4.884  10.508  0.00  0.00    +0.000 A 
ENDBRANCH   6  10
ENDBRANCH   1   8
BRANCH   1  16
ATOM     16  C   UNL     1      49.584   7.374  12.940  0.00  0.00    +0.000 C 
BRANCH  16  17
ATOM     17  N   UNL     1      49.417   7.686  14.370  0.00  0.00    +0.000 N 
ATOM     18  H   UNL     1      48.957   8.581  14.524  0.00  0.00    +0.000 HD
BRANCH  17  19
ATOM     19  C   UNL     1      48.844   6.695  15.187  0.00  0.00    +0.000 A 
ATOM     20  C   UNL     1      47.886   5.787  14.722  0.00  0.00    +0.000 A 
ATOM     21  C   UNL     1      47.407   4.769  15.547  0.00  0.00    +0.000 A 
ATOM     22  C   UNL     1      47.924   4.662  16.829  0.00  0.00    +0.000 A 
ATOM     23  N   UNL     1      48.878   5.492  17.330  0.00  0.00    +0.000 NA
ATOM     24  C   UNL     1      49.316   6.465  16.486  0.00  0.00    +0.000 A 
BRANCH  22  25
ATOM     25  C   UNL     1      47.440   3.560  17.719  0.00  0.00    +0.000 C 
ATOM     26  N   UNL     1      48.131   3.397  18.886  0.00  0.00    +0.000 N 
ATOM     27  O   UNL     1      46.492   2.843  17.427  0.00  0.00    +0.000 OA
ATOM     28  H   UNL     1      48.928   3.990  19.083  0.00  0.00    +0.000 HD
ATOM     29  H   UNL     1      47.880   2.644  19.513  0.00  0.00    +0.000 HD
ENDBRANCH  22  25
ENDBRANCH  17  19
ENDBRANCH  16  17
ENDBRANCH   1  16
TORSDOF 6
ENDMDL
MODEL 8
REMARK VINA RESULT:    -6.505      4.168      7.751
REMARK INTER + INTRA:          -9.932
REMARK INTER:                  -8.911
REMARK INTRA:                  -1.021
REMARK UNBOUND:                -1.145
REMARK  Name = 
REMARK  8 active torsions:
REMARK  status: ('A' for Active; 'I' for Inactive)
REMARK    1  A    between atoms: C_1  and  C_2
REMARK    2  A    between atoms: C_4  and  C_5
REMARK    3  A    between atoms: C_12  and  C_13
REMARK    4  A    between atoms: C_13  and  C_14
REMARK    5  A    between atoms: C_13  and  C_15
REMARK    6  A    between atoms: C_15  and  N_16
REMARK    7  A    between atoms: N_16  and  C_17
REMARK    8  A    between atoms: C_20  and  C_21
REMARK                            x       y       z     vdW  Elec       q    Type
REMARK                         _______ _______ _______ _____ _____    ______ ____
ROOT
ATOM      1  C   UNL     1      45.146   6.712  11.399  0.00  0.00    +0.000 C 
ATOM      2  C   UNL     1      43.901   7.550  11.076  0.00  0.00    +0.000 C 
ENDROOT
BRANCH   1   8
ATOM      3  C   UNL     1      43.135   2.106  12.000  0.00  0.00    +0.000 C 
ATOM      4  C   UNL     1      43.981   3.057  11.203  0.00  0.00    +0.000 A 
ATOM      5  C   UNL     1      44.624   2.628  10.030  0.00  0.00    +0.000 A 
ATOM      6  C   UNL     1      45.435   3.491   9.275  0.00  0.00    +0.000 A 
ATOM      7  C   UNL     1      45.581   4.809   9.748  0.00  0.00    +0.000 A 
ATOM      8  C   UNL     1      44.944   5.276  10.913  0.00  0.00    +0.000 A 
ATOM      9  C   UNL     1      44.138   4.384  11.629  0.00  0.00    +0.000 A 
BRANCH   6  10
ATOM     10  C   UNL     1      46.129   3.044   8.040  0.00  0.00    +0.000 A 
ATOM     11  C   UNL     1      46.565   1.714   7.891  0.00  0.00    +0.000 A 
ATOM     12  C   UNL     1      47.170   1.264   6.713  0.00  0.00    +0.000 A 
ATOM     13  C   UNL     1      47.374   2.144   5.658  0.00  0.00    +0.000 A 
ATOM     14  C   UNL     1      46.979   3.472   5.784  0.00  0.00    +0.000 A 
ATOM     15  C   UNL     1      46.361   3.915   6.959  0.00  0.00    +0.000 A 
ENDBRANCH   6  10
ENDBRANCH   1   8
BRANCH   1  16
ATOM     16  C   UNL     1      45.515   6.737  12.903  0.00  0.00    +0.000 C 
BRANCH  16  17
ATOM     17  N   UNL     1      46.227   7.967  13.291  0.00  0.00    +0.000 N 
ATOM     18  H   UNL     1      46.161   8.158  14.289  0.00  0.00    +0.000 HD
BRANCH  17  19
ATOM     19  C   UNL     1      47.555   8.114  12.852  0.00  0.00    +0.000 A 
ATOM     20  C   UNL     1      47.944   9.082  11.918  0.00  0.00    +0.000 A 
ATOM     21  C   UNL     1      49.287   9.244  11.576  0.00  0.00    +0.000 A 
ATOM     22  C   UNL     1      50.229   8.443  12.204  0.00  0.00    +0.000 A 
ATOM     23  N   UNL     1      49.919   7.507  13.141  0.00  0.00    +0.000 NA
ATOM     24  C   UNL     1      48.598   7.390  13.444  0.00  0.00    +0.000 A 
BRANCH  22  25
ATOM     25  C   UNL     1      51.676   8.621  11.867  0.00  0.00    +0.000 C 
ATOM     26  N   UNL     1      52.555   7.939  12.659  0.00  0.00    +0.000 N 
ATOM     27  O   UNL     1      52.058   9.333  10.947  0.00  0.00    +0.000 OA
ATOM     28  H   UNL     1      52.206   7.381  13.428  0.00  0.00    +0.000 HD
ATOM     29  H   UNL     1      53.549   8.048  12.509  0.00  0.00    +0.000 HD
ENDBRANCH  22  25
ENDBRANCH  17  19
ENDBRANCH  16  17
ENDBRANCH   1  16
TORSDOF 6
ENDMDL
MODEL 9
REMARK VINA RESULT:    -6.394      2.913      5.501
REMARK INTER + INTRA:          -9.782
REMARK INTER:                  -8.919
REMARK INTRA:                  -0.864
REMARK UNBOUND:                -1.145
REMARK  Name = 
REMARK  8 active torsions:
REMARK  status: ('A' for Active; 'I' for Inactive)
REMARK    1  A    between atoms: C_1  and  C_2
REMARK    2  A    between atoms: C_4  and  C_5
REMARK    3  A    between atoms: C_12  and  C_13
REMARK    4  A    between atoms: C_13  and  C_14
REMARK    5  A    between atoms: C_13  and  C_15
REMARK    6  A    between atoms: C_15  and  N_16
REMARK    7  A    between atoms: N_16  and  C_17
REMARK    8  A    between atoms: C_20  and  C_21
REMARK                            x       y       z     vdW  Elec       q    Type
REMARK                         _______ _______ _______ _____ _____    ______ ____
ROOT
ATOM      1  C   UNL     1      48.950   7.625  15.603  0.00  0.00    +0.000 C 
ATOM      2  C   UNL     1      50.306   8.299  15.353  0.00  0.00    +0.000 C 
ENDROOT
BRANCH   1   8
ATOM      3  C   UNL     1      47.603   6.519  20.355  0.00  0.00    +0.000 C 
ATOM      4  C   UNL     1      48.395   6.190  19.122  0.00  0.00    +0.000 A 
ATOM      5  C   UNL     1      49.253   5.077  19.102  0.00  0.00    +0.000 A 
ATOM      6  C   UNL     1      50.018   4.756  17.969  0.00  0.00    +0.000 A 
ATOM      7  C   UNL     1      49.894   5.604  16.852  0.00  0.00    +0.000 A 
ATOM      8  C   UNL     1      49.039   6.722  16.834  0.00  0.00    +0.000 A 
ATOM      9  C   UNL     1      48.287   6.998  17.981  0.00  0.00    +0.000 A 
BRANCH   6  10
ATOM     10  C   UNL     1      50.936   3.589  17.941  0.00  0.00    +0.000 A 
ATOM     11  C   UNL     1      50.522   2.351  17.411  0.00  0.00    +0.000 A 
ATOM     12  C   UNL     1      51.391   1.259  17.326  0.00  0.00    +0.000 A 
ATOM     13  C   UNL     1      52.695   1.370  17.791  0.00  0.00    +0.000 A 
ATOM     14  C   UNL     1      53.126   2.572  18.345  0.00  0.00    +0.000 A 
ATOM     15  C   UNL     1      52.258   3.667  18.415  0.00  0.00    +0.000 A 
ENDBRANCH   6  10
ENDBRANCH   1   8
BRANCH   1  16
ATOM     16  C   UNL     1      48.437   6.832  14.375  0.00  0.00    +0.000 C 
BRANCH  16  17
ATOM     17  N   UNL     1      47.122   7.302  13.906  0.00  0.00    +0.000 N 
ATOM     18  H   UNL     1      47.164   8.233  13.495  0.00  0.00    +0.000 HD
BRANCH  17  19
ATOM     19  C   UNL     1      46.379   6.437  13.083  0.00  0.00    +0.000 A 
ATOM     20  C   UNL     1      45.960   5.167  13.497  0.00  0.00    +0.000 A 
ATOM     21  C   UNL     1      45.155   4.379  12.675  0.00  0.00    +0.000 A 
ATOM     22  C   UNL     1      44.756   4.894  11.452  0.00  0.00    +0.000 A 
ATOM     23  N   UNL     1      45.103   6.132  11.005  0.00  0.00    +0.000 NA
ATOM     24  C   UNL     1      45.884   6.864  11.843  0.00  0.00    +0.000 A 
BRANCH  22  25
ATOM     25  C   UNL     1      43.871   4.072  10.569  0.00  0.00    +0.000 C 
ATOM     26  N   UNL     1      43.889   4.400   9.243  0.00  0.00    +0.000 N 
ATOM     27  O   UNL     1      43.168   3.165  10.997  0.00  0.00    +0.000 OA
ATOM     28  H   UNL     1      44.461   5.173   8.927  0.00  0.00    +0.000 HD
ATOM     29  H   UNL     1      43.283   3.909   8.600  0.00  0.00    +0.000 HD
ENDBRANCH  22  25
ENDBRANCH  17  19
ENDBRANCH  16  17
ENDBRANCH   1  16
TORSDOF 6
ENDMDL
