MODEL 1
REMARK VINA RESULT:    -8.066      0.000      0.000
REMARK INTER + INTRA:         -12.034
REMARK INTER:                 -10.896
REMARK INTRA:                  -1.139
REMARK UNBOUND:                -1.139
REMARK  Name = 
REMARK  7 active torsions:
REMARK  status: ('A' for Active; 'I' for Inactive)
REMARK    1  A    between atoms: C_1  and  N_2
REMARK    2  A    between atoms: C_4  and  C_5
REMARK    3  A    between atoms: N_7  and  C_8
REMARK    4  A    between atoms: C_8  and  C_9
REMARK    5  A    between atoms: C_12  and  O_13
REMARK    6  A    between atoms: O_13  and  C_14
REMARK    7  A    between atoms: C_14  and  C_15
REMARK                            x       y       z     vdW  Elec       q    Type
REMARK                         _______ _______ _______ _____ _____    ______ ____
ROOT
ATOM      1  C   UNL     1      48.750   7.016  14.780  0.00  0.00    +0.000 C 
ATOM      2  O   UNL     1      49.514   6.897  13.830  0.00  0.00    +0.000 OA
ATOM      3  N   UNL     1      47.477   7.523  14.611  0.00  0.00    +0.000 N 
ATOM      4  H   UNL     1      46.875   7.597  15.424  0.00  0.00    +0.000 HD
ENDROOT
BRANCH   1   8
ATOM      5  C   UNL     1      50.718   7.363  19.203  0.00  0.00    +0.000 C 
ATOM      6  N   UNL     1      49.977   6.801  18.098  0.00  0.00    +0.000 N 
ATOM      7  N   UNL     1      49.850   7.470  16.932  0.00  0.00    +0.000 NA
ATOM      8  C   UNL     1      49.108   6.639  16.158  0.00  0.00    +0.000 A 
ATOM      9  C   UNL     1      48.770   5.436  16.860  0.00  0.00    +0.000 A 
ATOM     10  C   UNL     1      48.085   4.237  16.700  0.00  0.00    +0.000 A 
ATOM     11 CL   UNL     1      47.292   3.825  15.264  0.00  0.00    +0.000 Cl
ATOM     12  N   UNL     1      48.011   3.323  17.684  0.00  0.00    +0.000 NA
ATOM     13  C   UNL     1      48.624   3.612  18.837  0.00  0.00    +0.000 A 
ATOM     14  N   UNL     1      49.317   4.721  19.136  0.00  0.00    +0.000 NA
ATOM     15  C   UNL     1      49.352   5.589  18.107  0.00  0.00    +0.000 A 
ENDBRANCH   1   8
BRANCH   3  16
ATOM     16  C   UNL     1      47.055   7.911  13.290  0.00  0.00    +0.000 C 
BRANCH  16  17
ATOM     17  C   UNL     1      46.417   6.801  12.507  0.00  0.00    +0.000 A 
ATOM     18  C   UNL     1      45.542   5.905  13.137  0.00  0.00    +0.000 A 
ATOM     19  C   UNL     1      44.895   4.902  12.408  0.00  0.00    +0.000 A 
ATOM     20  C   UNL     1      45.126   4.782  11.040  0.00  0.00    +0.000 A 
ATOM     21  C   UNL     1      46.005   5.665  10.409  0.00  0.00    +0.000 A 
ATOM     22  C   UNL     1      46.651   6.667  11.134  0.00  0.00    +0.000 A 
BRANCH  20  23
ATOM     23  O   UNL     1      44.575   3.858  10.206  0.00  0.00    +0.000 OA
BRANCH  23  24
ATOM     24  C   UNL     1      44.342   4.231   8.850  0.00  0.00    +0.000 C 
BRANCH  24  25
ATOM     25  C   UNL     1      45.055   3.196   7.971  0.00  0.00    +0.000 C 
ATOM     26  C   UNL     1      45.537   1.999   8.810  0.00  0.00    +0.000 C 
ATOM     27  C   UNL     1      46.269   0.974   7.952  0.00  0.00    +0.000 C 
ATOM     28  C   UNL     1      47.423   1.612   7.186  0.00  0.00    +0.000 C 
ATOM     29  C   UNL     1      46.953   2.799   6.351  0.00  0.00    +0.000 C 
ATOM     30  C   UNL     1      46.219   3.831   7.204  0.00  0.00    +0.000 C 
ENDBRANCH  24  25
ENDBRANCH  23  24
ENDBRANCH  20  23
ENDBRANCH  16  17
ENDBRANCH   3  16
TORSDOF 6
ENDMDL
MODEL 2
REMARK VINA RESULT:    -7.856      1.729      2.077
REMARK INTER + INTRA:         -11.750
REMARK INTER:                 -10.931
REMARK INTRA:                  -0.819
REMARK UNBOUND:                -1.139
REMARK  Name = 
REMARK  7 active torsions:
REMARK  status: ('A' for Active; 'I' for Inactive)
REMARK    1  A    between atoms: C_1  and  N_2
REMARK    2  A    between atoms: C_4  and  C_5
REMARK    3  A    between atoms: N_7  and  C_8
REMARK    4  A    between atoms: C_8  and  C_9
REMARK    5  A    between atoms: C_12  and  O_13
REMARK    6  A    between atoms: O_13  and  C_14
REMARK    7  A    between atoms: C_14  and  C_15
REMARK                            x       y       z     vdW  Elec       q    Type
REMARK                         _______ _______ _______ _____ _____    ______ ____
ROOT
ATOM      1  C   UNL     1      48.830   6.857  15.897  0.00  0.00    +0.000 C 
ATOM      2  O   UNL     1      48.958   8.071  15.802  0.00  0.00    +0.000 OA
ATOM      3  N   UNL     1      48.110   6.141  14.961  0.00  0.00    +0.000 N 
ATOM      4  H   UNL     1      48.036   5.136  15.074  0.00  0.00    +0.000 HD
ENDROOT
BRANCH   1   8
ATOM      5  C   UNL     1      51.586   3.531  18.111  0.00  0.00    +0.000 C 
ATOM      6  N   UNL     1      50.629   4.602  17.956  0.00  0.00    +0.000 N 
ATOM      7  N   UNL     1      50.333   5.101  16.737  0.00  0.00    +0.000 NA
ATOM      8  C   UNL     1      49.415   6.065  16.993  0.00  0.00    +0.000 A 
ATOM      9  C   UNL     1      49.139   6.163  18.396  0.00  0.00    +0.000 A 
ATOM     10  C   UNL     1      48.367   6.874  19.308  0.00  0.00    +0.000 A 
ATOM     11 CL   UNL     1      47.302   8.102  18.839  0.00  0.00    +0.000 Cl
ATOM     12  N   UNL     1      48.418   6.626  20.629  0.00  0.00    +0.000 NA
ATOM     13  C   UNL     1      49.250   5.663  21.041  0.00  0.00    +0.000 A 
ATOM     14  N   UNL     1      50.051   4.900  20.283  0.00  0.00    +0.000 NA
ATOM     15  C   UNL     1      49.947   5.199  18.975  0.00  0.00    +0.000 A 
ENDBRANCH   1   8
BRANCH   3  16
ATOM     16  C   UNL     1      47.512   6.848  13.858  0.00  0.00    +0.000 C 
BRANCH  16  17
ATOM     17  C   UNL     1      46.735   5.968  12.923  0.00  0.00    +0.000 A 
ATOM     18  C   UNL     1      46.216   4.746  13.372  0.00  0.00    +0.000 A 
ATOM     19  C   UNL     1      45.440   3.944  12.529  0.00  0.00    +0.000 A 
ATOM     20  C   UNL     1      45.184   4.356  11.224  0.00  0.00    +0.000 A 
ATOM     21  C   UNL     1      45.707   5.567  10.768  0.00  0.00    +0.000 A 
ATOM     22  C   UNL     1      46.481   6.370  11.607  0.00  0.00    +0.000 A 
BRANCH  20  23
ATOM     23  O   UNL     1      44.454   3.682  10.293  0.00  0.00    +0.000 OA
BRANCH  23  24
ATOM     24  C   UNL     1      44.401   4.210   8.970  0.00  0.00    +0.000 C 
BRANCH  24  25
ATOM     25  C   UNL     1      45.086   3.190   8.052  0.00  0.00    +0.000 C 
ATOM     26  C   UNL     1      45.555   1.960   8.849  0.00  0.00    +0.000 C 
ATOM     27  C   UNL     1      46.261   0.949   7.952  0.00  0.00    +0.000 C 
ATOM     28  C   UNL     1      47.418   1.590   7.194  0.00  0.00    +0.000 C 
ATOM     29  C   UNL     1      46.961   2.810   6.401  0.00  0.00    +0.000 C 
ATOM     30  C   UNL     1      46.254   3.828   7.293  0.00  0.00    +0.000 C 
ENDBRANCH  24  25
ENDBRANCH  23  24
ENDBRANCH  20  23
ENDBRANCH  16  17
ENDBRANCH   3  16
TORSDOF 6
ENDMDL
MODEL 3
REMARK VINA RESULT:    -7.778      2.058      2.763
REMARK INTER + INTRA:         -11.645
REMARK INTER:                 -10.713
REMARK INTRA:                  -0.932
REMARK UNBOUND:                -1.139
REMARK  Name = 
REMARK  7 active torsions:
REMARK  status: ('A' for Active; 'I' for Inactive)
REMARK    1  A    between atoms: C_1  and  N_2
REMARK    2  A    between atoms: C_4  and  C_5
REMARK    3  A    between atoms: N_7  and  C_8
REMARK    4  A    between atoms: C_8  and  C_9
REMARK    5  A    between atoms: C_12  and  O_13
REMARK    6  A    between atoms: O_13  and  C_14
REMARK    7  A    between atoms: C_14  and  C_15
REMARK                            x       y       z     vdW  Elec       q    Type
REMARK                         _______ _______ _______ _____ _____    ______ ____
ROOT
ATOM      1  C   UNL     1      49.148   6.516  16.105  0.00  0.00    +0.000 C 
ATOM      2  O   UNL     1      50.290   6.509  15.660  0.00  0.00    +0.000 OA
ATOM      3  N   UNL     1      48.058   6.632  15.265  0.00  0.00    +0.000 N 
ATOM      4  H   UNL     1      47.130   6.625  15.675  0.00  0.00    +0.000 HD
ENDROOT
BRANCH   1   8
ATOM      5  C   UNL     1      48.725   4.511  20.505  0.00  0.00    +0.000 C 
ATOM      6  N   UNL     1      48.657   5.515  19.468  0.00  0.00    +0.000 N 
ATOM      7  N   UNL     1      49.051   5.244  18.207  0.00  0.00    +0.000 NA
ATOM      8  C   UNL     1      48.839   6.405  17.541  0.00  0.00    +0.000 A 
ATOM      9  C   UNL     1      48.305   7.413  18.408  0.00  0.00    +0.000 A 
ATOM     10  C   UNL     1      47.879   8.737  18.408  0.00  0.00    +0.000 A 
ATOM     11 CL   UNL     1      47.905   9.702  17.020  0.00  0.00    +0.000 Cl
ATOM     12  N   UNL     1      47.416   9.335  19.520  0.00  0.00    +0.000 NA
ATOM     13  C   UNL     1      47.381   8.605  20.640  0.00  0.00    +0.000 A 
ATOM     14  N   UNL     1      47.757   7.327  20.792  0.00  0.00    +0.000 NA
ATOM     15  C   UNL     1      48.206   6.791  19.641  0.00  0.00    +0.000 A 
ENDBRANCH   1   8
BRANCH   3  16
ATOM     16  C   UNL     1      48.284   6.741  13.847  0.00  0.00    +0.000 C 
BRANCH  16  17
ATOM     17  C   UNL     1      47.260   6.028  13.013  0.00  0.00    +0.000 A 
ATOM     18  C   UNL     1      46.838   6.575  11.794  0.00  0.00    +0.000 A 
ATOM     19  C   UNL     1      45.929   5.892  10.978  0.00  0.00    +0.000 A 
ATOM     20  C   UNL     1      45.428   4.658  11.382  0.00  0.00    +0.000 A 
ATOM     21  C   UNL     1      45.837   4.113  12.600  0.00  0.00    +0.000 A 
ATOM     22  C   UNL     1      46.744   4.791  13.415  0.00  0.00    +0.000 A 
BRANCH  20  23
ATOM     23  O   UNL     1      44.540   3.885  10.699  0.00  0.00    +0.000 OA
BRANCH  23  24
ATOM     24  C   UNL     1      44.152   4.302   9.392  0.00  0.00    +0.000 C 
BRANCH  24  25
ATOM     25  C   UNL     1      44.840   3.360   8.397  0.00  0.00    +0.000 C 
ATOM     26  C   UNL     1      45.302   2.066   9.093  0.00  0.00    +0.000 C 
ATOM     27  C   UNL     1      46.011   1.131   8.120  0.00  0.00    +0.000 C 
ATOM     28  C   UNL     1      47.174   1.830   7.423  0.00  0.00    +0.000 C 
ATOM     29  C   UNL     1      46.723   3.113   6.731  0.00  0.00    +0.000 C 
ATOM     30  C   UNL     1      46.013   4.055   7.699  0.00  0.00    +0.000 C 
ENDBRANCH  24  25
ENDBRANCH  23  24
ENDBRANCH  20  23
ENDBRANCH  16  17
ENDBRANCH   3  16
TORSDOF 6
ENDMDL
MODEL 4
REMARK VINA RESULT:    -7.266      1.658      2.294
REMARK INTER + INTRA:         -10.953
REMARK INTER:                  -9.901
REMARK INTRA:                  -1.052
REMARK UNBOUND:                -1.139
REMARK  Name = 
REMARK  7 active torsions:
REMARK  status: ('A' for Active; 'I' for Inactive)
REMARK    1  A    between atoms: C_1  and  N_2
REMARK    2  A    between atoms: C_4  and  C_5
REMARK    3  A    between atoms: N_7  and  C_8
REMARK    4  A    between atoms: C_8  and  C_9
REMARK    5  A    between atoms: C_12  and  O_13
REMARK    6  A    between atoms: O_13  and  C_14
REMARK    7  A    between atoms: C_14  and  C_15
REMARK                            x       y       z     vdW  Elec       q    Type
REMARK                         _______ _______ _______ _____ _____    ______ ____
ROOT
ATOM      1  C   UNL     1      47.855   8.922  13.462  0.00  0.00    +0.000 C 
ATOM      2  O   UNL     1      48.080   9.203  12.291  0.00  0.00    +0.000 OA
ATOM      3  N   UNL     1      46.587   8.568  13.878  0.00  0.00    +0.000 N 
ATOM      4  H   UNL     1      46.447   8.335  14.855  0.00  0.00    +0.000 HD
ENDROOT
BRANCH   1   8
ATOM      5  C   UNL     1      51.360  10.648  16.342  0.00  0.00    +0.000 C 
ATOM      6  N   UNL     1      50.428   9.704  15.770  0.00  0.00    +0.000 N 
ATOM      7  N   UNL     1      49.588  10.067  14.777  0.00  0.00    +0.000 NA
ATOM      8  C   UNL     1      48.890   8.936  14.510  0.00  0.00    +0.000 A 
ATOM      9  C   UNL     1      49.305   7.855  15.355  0.00  0.00    +0.000 A 
ATOM     10  C   UNL     1      49.044   6.515  15.615  0.00  0.00    +0.000 A 
ATOM     11 CL   UNL     1      47.874   5.632  14.772  0.00  0.00    +0.000 Cl
ATOM     12  N   UNL     1      49.714   5.831  16.561  0.00  0.00    +0.000 NA
ATOM     13  C   UNL     1      50.648   6.494  17.252  0.00  0.00    +0.000 A 
ATOM     14  N   UNL     1      51.005   7.779  17.113  0.00  0.00    +0.000 NA
ATOM     15  C   UNL     1      50.298   8.400  16.150  0.00  0.00    +0.000 A 
ENDBRANCH   1   8
BRANCH   3  16
ATOM     16  C   UNL     1      45.524   8.529  12.907  0.00  0.00    +0.000 C 
BRANCH  16  17
ATOM     17  C   UNL     1      45.385   7.206  12.213  0.00  0.00    +0.000 A 
ATOM     18  C   UNL     1      44.594   6.194  12.775  0.00  0.00    +0.000 A 
ATOM     19  C   UNL     1      44.407   4.978  12.110  0.00  0.00    +0.000 A 
ATOM     20  C   UNL     1      45.019   4.761  10.879  0.00  0.00    +0.000 A 
ATOM     21  C   UNL     1      45.817   5.761  10.319  0.00  0.00    +0.000 A 
ATOM     22  C   UNL     1      46.004   6.976  10.980  0.00  0.00    +0.000 A 
BRANCH  20  23
ATOM     23  O   UNL     1      44.933   3.632  10.123  0.00  0.00    +0.000 OA
BRANCH  23  24
ATOM     24  C   UNL     1      44.336   3.733   8.832  0.00  0.00    +0.000 C 
BRANCH  24  25
ATOM     25  C   UNL     1      45.180   2.879   7.878  0.00  0.00    +0.000 C 
ATOM     26  C   UNL     1      45.817   1.690   8.621  0.00  0.00    +0.000 C 
ATOM     27  C   UNL     1      46.680   0.847   7.689  0.00  0.00    +0.000 C 
ATOM     28  C   UNL     1      47.739   1.695   6.993  0.00  0.00    +0.000 C 
ATOM     29  C   UNL     1      47.115   2.875   6.253  0.00  0.00    +0.000 C 
ATOM     30  C   UNL     1      46.250   3.725   7.180  0.00  0.00    +0.000 C 
ENDBRANCH  24  25
ENDBRANCH  23  24
ENDBRANCH  20  23
ENDBRANCH  16  17
ENDBRANCH   3  16
TORSDOF 6
ENDMDL
MODEL 5
REMARK VINA RESULT:    -7.179      2.376      2.901
REMARK INTER + INTRA:         -10.836
REMARK INTER:                  -9.838
REMARK INTRA:                  -0.999
REMARK UNBOUND:                -1.139
REMARK  Name = 
REMARK  7 active torsions:
REMARK  status: ('A' for Active; 'I' for Inactive)
REMARK    1  A    between atoms: C_1  and  N_2
REMARK    2  A    between atoms: C_4  and  C_5
REMARK    3  A    between atoms: N_7  and  C_8
REMARK    4  A    between atoms: C_8  and  C_9
REMARK    5  A    between atoms: C_12  and  O_13
REMARK    6  A    between atoms: O_13  and  C_14
REMARK    7  A    between atoms: C_14  and  C_15
REMARK                            x       y       z     vdW  Elec       q    Type
REMARK                         _______ _______ _______ _____ _____    ______ ____
ROOT
ATOM      1  C   UNL     1      49.583   5.877  17.092  0.00  0.00    +0.000 C 
ATOM      2  O   UNL     1      48.523   5.869  17.707  0.00  0.00    +0.000 OA
ATOM      3  N   UNL     1      49.767   6.703  16.000  0.00  0.00    +0.000 N 
ATOM      4  H   UNL     1      50.662   6.683  15.526  0.00  0.00    +0.000 HD
ENDROOT
BRANCH   1   8
ATOM      5  C   UNL     1      54.051   4.687  18.567  0.00  0.00    +0.000 C 
ATOM      6  N   UNL     1      52.696   4.515  18.098  0.00  0.00    +0.000 N 
ATOM      7  N   UNL     1      51.895   5.578  17.874  0.00  0.00    +0.000 NA
ATOM      8  C   UNL     1      50.731   5.026  17.449  0.00  0.00    +0.000 A 
ATOM      9  C   UNL     1      50.815   3.597  17.410  0.00  0.00    +0.000 A 
ATOM     10  C   UNL     1      50.064   2.469  17.100  0.00  0.00    +0.000 A 
ATOM     11 CL   UNL     1      48.466   2.560  16.555  0.00  0.00    +0.000 Cl
ATOM     12  N   UNL     1      50.567   1.226  17.213  0.00  0.00    +0.000 NA
ATOM     13  C   UNL     1      51.828   1.111  17.641  0.00  0.00    +0.000 A 
ATOM     14  N   UNL     1      52.668   2.101  17.977  0.00  0.00    +0.000 NA
ATOM     15  C   UNL     1      52.102   3.315  17.839  0.00  0.00    +0.000 A 
ENDBRANCH   1   8
BRANCH   3  16
ATOM     16  C   UNL     1      48.687   7.566  15.595  0.00  0.00    +0.000 C 
BRANCH  16  17
ATOM     17  C   UNL     1      48.016   7.140  14.322  0.00  0.00    +0.000 A 
ATOM     18  C   UNL     1      47.715   5.789  14.101  0.00  0.00    +0.000 A 
ATOM     19  C   UNL     1      47.037   5.386  12.946  0.00  0.00    +0.000 A 
ATOM     20  C   UNL     1      46.661   6.333  11.997  0.00  0.00    +0.000 A 
ATOM     21  C   UNL     1      46.967   7.679  12.208  0.00  0.00    +0.000 A 
ATOM     22  C   UNL     1      47.643   8.084  13.359  0.00  0.00    +0.000 A 
BRANCH  20  23
ATOM     23  O   UNL     1      46.004   6.090  10.830  0.00  0.00    +0.000 OA
BRANCH  23  24
ATOM     24  C   UNL     1      44.730   5.452  10.897  0.00  0.00    +0.000 C 
BRANCH  24  25
ATOM     25  C   UNL     1      44.685   4.420   9.763  0.00  0.00    +0.000 C 
ATOM     26  C   UNL     1      44.812   2.989  10.315  0.00  0.00    +0.000 C 
ATOM     27  C   UNL     1      44.794   1.955   9.196  0.00  0.00    +0.000 C 
ATOM     28  C   UNL     1      45.870   2.243   8.154  0.00  0.00    +0.000 C 
ATOM     29  C   UNL     1      45.749   3.660   7.601  0.00  0.00    +0.000 C 
ATOM     30  C   UNL     1      45.768   4.702   8.717  0.00  0.00    +0.000 C 
ENDBRANCH  24  25
ENDBRANCH  23  24
ENDBRANCH  20  23
ENDBRANCH  16  17
ENDBRANCH   3  16
TORSDOF 6
ENDMDL
MODEL 6
REMARK VINA RESULT:    -7.092      3.231      4.984
REMARK INTER + INTRA:         -10.718
REMARK INTER:                  -9.808
REMARK INTRA:                  -0.910
REMARK UNBOUND:                -1.139
REMARK  Name = 
REMARK  7 active torsions:
REMARK  status: ('A' for Active; 'I' for Inactive)
REMARK    1  A    between atoms: C_1  and  N_2
REMARK    2  A    between atoms: C_4  and  C_5
REMARK    3  A    between atoms: N_7  and  C_8
REMARK    4  A    between atoms: C_8  and  C_9
REMARK    5  A    between atoms: C_12  and  O_13
REMARK    6  A    between atoms: O_13  and  C_14
REMARK    7  A    between atoms: C_14  and  C_15
REMARK                            x       y       z     vdW  Elec       q    Type
REMARK                         _______ _______ _______ _____ _____    ______ ____
ROOT
ATOM      1  C   UNL     1      48.831   7.773  14.082  0.00  0.00    +0.000 C 
ATOM      2  O   UNL     1      48.703   7.668  15.296  0.00  0.00    +0.000 OA
ATOM      3  N   UNL     1      48.039   7.046  13.216  0.00  0.00    +0.000 N 
ATOM      4  H   UNL     1      48.174   7.169  12.219  0.00  0.00    +0.000 HD
ENDROOT
BRANCH   1   8
ATOM      5  C   UNL     1      53.152   9.714  13.023  0.00  0.00    +0.000 C 
ATOM      6  N   UNL     1      51.723   9.507  12.990  0.00  0.00    +0.000 N 
ATOM      7  N   UNL     1      51.140   8.548  13.740  0.00  0.00    +0.000 NA
ATOM      8  C   UNL     1      49.821   8.661  13.448  0.00  0.00    +0.000 A 
ATOM      9  C   UNL     1      49.585   9.707  12.498  0.00  0.00    +0.000 A 
ATOM     10  C   UNL     1      48.559  10.334  11.799  0.00  0.00    +0.000 A 
ATOM     11 CL   UNL     1      46.938   9.880  11.958  0.00  0.00    +0.000 Cl
ATOM     12  N   UNL     1      48.795  11.348  10.947  0.00  0.00    +0.000 NA
ATOM     13  C   UNL     1      50.066  11.737  10.793  0.00  0.00    +0.000 A 
ATOM     14  N   UNL     1      51.152  11.230  11.394  0.00  0.00    +0.000 NA
ATOM     15  C   UNL     1      50.843  10.222  12.233  0.00  0.00    +0.000 A 
ENDBRANCH   1   8
BRANCH   3  16
ATOM     16  C   UNL     1      47.047   6.158  13.765  0.00  0.00    +0.000 C 
BRANCH  16  17
ATOM     17  C   UNL     1      46.289   5.381  12.730  0.00  0.00    +0.000 A 
ATOM     18  C   UNL     1      45.942   4.043  12.965  0.00  0.00    +0.000 A 
ATOM     19  C   UNL     1      45.185   3.324  12.034  0.00  0.00    +0.000 A 
ATOM     20  C   UNL     1      44.776   3.937  10.854  0.00  0.00    +0.000 A 
ATOM     21  C   UNL     1      45.127   5.266  10.609  0.00  0.00    +0.000 A 
ATOM     22  C   UNL     1      45.881   5.986  11.536  0.00  0.00    +0.000 A 
BRANCH  20  23
ATOM     23  O   UNL     1      44.043   3.365   9.859  0.00  0.00    +0.000 OA
BRANCH  23  24
ATOM     24  C   UNL     1      44.481   2.113   9.337  0.00  0.00    +0.000 C 
BRANCH  24  25
ATOM     25  C   UNL     1      45.749   2.386   8.518  0.00  0.00    +0.000 C 
ATOM     26  C   UNL     1      45.473   3.407   7.399  0.00  0.00    +0.000 C 
ATOM     27  C   UNL     1      46.719   3.668   6.562  0.00  0.00    +0.000 C 
ATOM     28  C   UNL     1      47.294   2.373   5.999  0.00  0.00    +0.000 C 
ATOM     29  C   UNL     1      47.571   1.357   7.102  0.00  0.00    +0.000 C 
ATOM     30  C   UNL     1      46.326   1.088   7.945  0.00  0.00    +0.000 C 
ENDBRANCH  24  25
ENDBRANCH  23  24
ENDBRANCH  20  23
ENDBRANCH  16  17
ENDBRANCH   3  16
TORSDOF 6
ENDMDL
MODEL 7
REMARK VINA RESULT:    -6.954      2.472      2.791
REMARK INTER + INTRA:         -10.532
REMARK INTER:                  -9.527
REMARK INTRA:                  -1.005
REMARK UNBOUND:                -1.139
REMARK  Name = 
REMARK  7 active torsions:
REMARK  status: ('A' for Active; 'I' for Inactive)
REMARK    1  A    between atoms: C_1  and  N_2
REMARK    2  A    between atoms: C_4  and  C_5
REMARK    3  A    between atoms: N_7  and  C_8
REMARK    4  A    between atoms: C_8  and  C_9
REMARK    5  A    between atoms: C_12  and  O_13
REMARK    6  A    between atoms: O_13  and  C_14
REMARK    7  A    between atoms: C_14  and  C_15
REMARK                            x       y       z     vdW  Elec       q    Type
REMARK                         _______ _______ _______ _____ _____    ______ ____
ROOT
ATOM      1  C   UNL     1      48.427   9.084  16.288  0.00  0.00    +0.000 C 
ATOM      2  O   UNL     1      49.584   9.102  15.887  0.00  0.00    +0.000 OA
ATOM      3  N   UNL     1      47.369   8.987  15.406  0.00  0.00    +0.000 N 
ATOM      4  H   UNL     1      46.427   8.968  15.782  0.00  0.00    +0.000 HD
ENDROOT
BRANCH   1   8
ATOM      5  C   UNL     1      47.200  11.068  20.544  0.00  0.00    +0.000 C 
ATOM      6  N   UNL     1      47.526  10.045  19.578  0.00  0.00    +0.000 N 
ATOM      7  N   UNL     1      47.814  10.361  18.298  0.00  0.00    +0.000 NA
ATOM      8  C   UNL     1      48.064   9.163  17.713  0.00  0.00    +0.000 A 
ATOM      9  C   UNL     1      47.925   8.088  18.650  0.00  0.00    +0.000 A 
ATOM     10  C   UNL     1      48.023   6.704  18.741  0.00  0.00    +0.000 A 
ATOM     11 CL   UNL     1      48.436   5.730  17.422  0.00  0.00    +0.000 Cl
ATOM     12  N   UNL     1      47.795   6.050  19.895  0.00  0.00    +0.000 NA
ATOM     13  C   UNL     1      47.465   6.785  20.962  0.00  0.00    +0.000 A 
ATOM     14  N   UNL     1      47.332   8.118  21.024  0.00  0.00    +0.000 NA
ATOM     15  C   UNL     1      47.576   8.707  19.838  0.00  0.00    +0.000 A 
ENDBRANCH   1   8
BRANCH   3  16
ATOM     16  C   UNL     1      47.648   8.902  13.996  0.00  0.00    +0.000 C 
BRANCH  16  17
ATOM     17  C   UNL     1      46.953   7.764  13.307  0.00  0.00    +0.000 A 
ATOM     18  C   UNL     1      45.941   8.018  12.371  0.00  0.00    +0.000 A 
ATOM     19  C   UNL     1      45.326   6.970  11.679  0.00  0.00    +0.000 A 
ATOM     20  C   UNL     1      45.713   5.656  11.925  0.00  0.00    +0.000 A 
ATOM     21  C   UNL     1      46.714   5.396  12.864  0.00  0.00    +0.000 A 
ATOM     22  C   UNL     1      47.330   6.440  13.555  0.00  0.00    +0.000 A 
BRANCH  20  23
ATOM     23  O   UNL     1      45.204   4.540  11.334  0.00  0.00    +0.000 OA
BRANCH  23  24
ATOM     24  C   UNL     1      44.220   4.708  10.317  0.00  0.00    +0.000 C 
BRANCH  24  25
ATOM     25  C   UNL     1      44.622   3.799   9.149  0.00  0.00    +0.000 C 
ATOM     26  C   UNL     1      45.012   2.397   9.650  0.00  0.00    +0.000 C 
ATOM     27  C   UNL     1      45.439   1.491   8.500  0.00  0.00    +0.000 C 
ATOM     28  C   UNL     1      46.564   2.119   7.685  0.00  0.00    +0.000 C 
ATOM     29  C   UNL     1      46.184   3.509   7.184  0.00  0.00    +0.000 C 
ATOM     30  C   UNL     1      45.757   4.423   8.330  0.00  0.00    +0.000 C 
ENDBRANCH  24  25
ENDBRANCH  23  24
ENDBRANCH  20  23
ENDBRANCH  16  17
ENDBRANCH   3  16
TORSDOF 6
ENDMDL
MODEL 8
REMARK VINA RESULT:    -6.901      3.321      3.795
REMARK INTER + INTRA:         -10.460
REMARK INTER:                  -9.483
REMARK INTRA:                  -0.978
REMARK UNBOUND:                -1.139
REMARK  Name = 
REMARK  7 active torsions:
REMARK  status: ('A' for Active; 'I' for Inactive)
REMARK    1  A    between atoms: C_1  and  N_2
REMARK    2  A    between atoms: C_4  and  C_5
REMARK    3  A    between atoms: N_7  and  C_8
REMARK    4  A    between atoms: C_8  and  C_9
REMARK    5  A    between atoms: C_12  and  O_13
REMARK    6  A    between atoms: O_13  and  C_14
REMARK    7  A    between atoms: C_14  and  C_15
REMARK                            x       y       z     vdW  Elec       q    Type
REMARK                         _______ _______ _______ _____ _____    ______ ____
ROOT
ATOM      1  C   UNL     1      47.734   9.202  13.307  0.00  0.00    +0.000 C 
ATOM      2  O   UNL     1      47.749   9.644  12.165  0.00  0.00    +0.000 OA
ATOM      3  N   UNL     1      46.634   8.523  13.794  0.00  0.00    +0.000 N 
ATOM      4  H   UNL     1      46.667   8.168  14.743  0.00  0.00    +0.000 HD
ENDROOT
BRANCH   1   8
ATOM      5  C   UNL     1      50.097  10.299  17.402  0.00  0.00    +0.000 C 
ATOM      6  N   UNL     1      49.887   9.836  16.050  0.00  0.00    +0.000 N 
ATOM      7  N   UNL     1      48.656   9.842  15.495  0.00  0.00    +0.000 NA
ATOM      8  C   UNL     1      48.858   9.351  14.247  0.00  0.00    +0.000 A 
ATOM      9  C   UNL     1      50.239   9.036  14.029  0.00  0.00    +0.000 A 
ATOM     10  C   UNL     1      51.101   8.534  13.061  0.00  0.00    +0.000 A 
ATOM     11 CL   UNL     1      50.573   8.062  11.525  0.00  0.00    +0.000 Cl
ATOM     12  N   UNL     1      52.420   8.393  13.288  0.00  0.00    +0.000 NA
ATOM     13  C   UNL     1      52.877   8.754  14.492  0.00  0.00    +0.000 A 
ATOM     14  N   UNL     1      52.170   9.249  15.517  0.00  0.00    +0.000 NA
ATOM     15  C   UNL     1      50.861   9.365  15.221  0.00  0.00    +0.000 A 
ENDBRANCH   1   8
BRANCH   3  16
ATOM     16  C   UNL     1      45.498   8.336  12.929  0.00  0.00    +0.000 C 
BRANCH  16  17
ATOM     17  C   UNL     1      45.333   6.927  12.440  0.00  0.00    +0.000 A 
ATOM     18  C   UNL     1      46.138   5.902  12.956  0.00  0.00    +0.000 A 
ATOM     19  C   UNL     1      45.955   4.576  12.553  0.00  0.00    +0.000 A 
ATOM     20  C   UNL     1      44.970   4.265  11.620  0.00  0.00    +0.000 A 
ATOM     21  C   UNL     1      44.172   5.283  11.094  0.00  0.00    +0.000 A 
ATOM     22  C   UNL     1      44.351   6.607  11.496  0.00  0.00    +0.000 A 
BRANCH  20  23
ATOM     23  O   UNL     1      44.682   3.027  11.132  0.00  0.00    +0.000 OA
BRANCH  23  24
ATOM     24  C   UNL     1      44.287   2.918   9.766  0.00  0.00    +0.000 C 
BRANCH  24  25
ATOM     25  C   UNL     1      45.568   2.743   8.941  0.00  0.00    +0.000 C 
ATOM     26  C   UNL     1      45.620   3.755   7.782  0.00  0.00    +0.000 C 
ATOM     27  C   UNL     1      46.876   3.575   6.939  0.00  0.00    +0.000 C 
ATOM     28  C   UNL     1      47.004   2.143   6.429  0.00  0.00    +0.000 C 
ATOM     29  C   UNL     1      46.955   1.134   7.572  0.00  0.00    +0.000 C 
ATOM     30  C   UNL     1      45.698   1.308   8.422  0.00  0.00    +0.000 C 
ENDBRANCH  24  25
ENDBRANCH  23  24
ENDBRANCH  20  23
ENDBRANCH  16  17
ENDBRANCH   3  16
TORSDOF 6
ENDMDL
MODEL 9
REMARK VINA RESULT:    -6.730      3.696      9.940
REMARK INTER + INTRA:         -10.230
REMARK INTER:                  -9.143
REMARK INTRA:                  -1.087
REMARK UNBOUND:                -1.139
REMARK  Name = 
REMARK  7 active torsions:
REMARK  status: ('A' for Active; 'I' for Inactive)
REMARK    1  A    between atoms: C_1  and  N_2
REMARK    2  A    between atoms: C_4  and  C_5
REMARK    3  A    between atoms: N_7  and  C_8
REMARK    4  A    between atoms: C_8  and  C_9
REMARK    5  A    between atoms: C_12  and  O_13
REMARK    6  A    between atoms: O_13  and  C_14
REMARK    7  A    between atoms: C_14  and  C_15
REMARK                            x       y       z     vdW  Elec       q    Type
REMARK                         _______ _______ _______ _____ _____    ______ ____
ROOT
ATOM      1  C   UNL     1      46.827   3.965  14.474  0.00  0.00    +0.000 C 
ATOM      2  O   UNL     1      47.656   3.156  14.076  0.00  0.00    +0.000 OA
ATOM      3  N   UNL     1      46.731   4.286  15.814  0.00  0.00    +0.000 N 
ATOM      4  H   UNL     1      46.035   4.966  16.099  0.00  0.00    +0.000 HD
ENDROOT
BRANCH   1   8
ATOM      5  C   UNL     1      42.916   4.635  11.678  0.00  0.00    +0.000 C 
ATOM      6  N   UNL     1      44.155   4.936  12.359  0.00  0.00    +0.000 N 
ATOM      7  N   UNL     1      44.768   4.014  13.130  0.00  0.00    +0.000 NA
ATOM      8  C   UNL     1      45.875   4.652  13.584  0.00  0.00    +0.000 A 
ATOM      9  C   UNL     1      45.945   5.993  13.085  0.00  0.00    +0.000 A 
ATOM     10  C   UNL     1      46.739   7.133  13.133  0.00  0.00    +0.000 A 
ATOM     11 CL   UNL     1      48.173   7.209  14.026  0.00  0.00    +0.000 Cl
ATOM     12  N   UNL     1      46.413   8.255  12.466  0.00  0.00    +0.000 NA
ATOM     13  C   UNL     1      45.285   8.237  11.748  0.00  0.00    +0.000 A 
ATOM     14  N   UNL     1      44.425   7.218  11.609  0.00  0.00    +0.000 NA
ATOM     15  C   UNL     1      44.813   6.129  12.300  0.00  0.00    +0.000 A 
ENDBRANCH   1   8
BRANCH   3  16
ATOM     16  C   UNL     1      47.632   3.655  16.743  0.00  0.00    +0.000 C 
BRANCH  16  17
ATOM     17  C   UNL     1      47.847   4.436  18.006  0.00  0.00    +0.000 A 
ATOM     18  C   UNL     1      49.023   4.268  18.749  0.00  0.00    +0.000 A 
ATOM     19  C   UNL     1      49.262   5.032  19.896  0.00  0.00    +0.000 A 
ATOM     20  C   UNL     1      48.320   5.967  20.314  0.00  0.00    +0.000 A 
ATOM     21  C   UNL     1      47.142   6.132  19.583  0.00  0.00    +0.000 A 
ATOM     22  C   UNL     1      46.901   5.372  18.439  0.00  0.00    +0.000 A 
BRANCH  20  23
ATOM     23  O   UNL     1      48.413   6.775  21.406  0.00  0.00    +0.000 OA
BRANCH  23  24
ATOM     24  C   UNL     1      49.241   7.932  21.317  0.00  0.00    +0.000 C 
BRANCH  24  25
ATOM     25  C   UNL     1      48.311   9.152  21.333  0.00  0.00    +0.000 C 
ATOM     26  C   UNL     1      47.031   8.858  22.138  0.00  0.00    +0.000 C 
ATOM     27  C   UNL     1      46.087  10.054  22.141  0.00  0.00    +0.000 C 
ATOM     28  C   UNL     1      45.757  10.506  20.722  0.00  0.00    +0.000 C 
ATOM     29  C   UNL     1      47.020  10.800  19.919  0.00  0.00    +0.000 C 
ATOM     30  C   UNL     1      47.971   9.606  19.910  0.00  0.00    +0.000 C 
ENDBRANCH  24  25
ENDBRANCH  23  24
ENDBRANCH  20  23
ENDBRANCH  16  17
ENDBRANCH   3  16
TORSDOF 6
ENDMDL
