MODEL 1
REMARK VINA RESULT:    -8.267      0.000      0.000
REMARK INTER + INTRA:         -12.725
REMARK INTER:                 -11.650
REMARK INTRA:                  -1.075
REMARK UNBOUND:                -1.075
REMARK  Name = 
REMARK  7 active torsions:
REMARK  status: ('A' for Active; 'I' for Inactive)
REMARK    1  A    between atoms: C_2  and  C_4
REMARK    2  A    between atoms: C_7  and  O_8
REMARK    3  A    between atoms: O_8  and  C_9
REMARK    4  A    between atoms: C_9  and  C_10
REMARK    5  A    between atoms: C_10  and  C_11
REMARK    6  A    between atoms: C_15  and  O_16
REMARK    7  A    between atoms: O_16  and  C_17
REMARK                            x       y       z     vdW  Elec       q    Type
REMARK                         _______ _______ _______ _____ _____    ______ ____
ROOT
ATOM      1  C   UNL     1      43.489   4.560  10.908  0.00  0.00    +0.000 C 
ENDROOT
BRANCH   1   2
ATOM      2  O   UNL     1      43.493   3.202  10.439  0.00  0.00    +0.000 OA
BRANCH   2   6
ATOM      3  C   UNL     1      46.387   2.664   7.549  0.00  0.00    +0.000 A 
ATOM      4  C   UNL     1      45.790   3.917   7.697  0.00  0.00    +0.000 A 
ATOM      5  C   UNL     1      44.804   4.093   8.674  0.00  0.00    +0.000 A 
ATOM      6  C   UNL     1      44.457   3.008   9.465  0.00  0.00    +0.000 A 
ATOM      7  N   UNL     1      45.014   1.783   9.329  0.00  0.00    +0.000 NA
ATOM      8  C   UNL     1      45.958   1.636   8.370  0.00  0.00    +0.000 A 
BRANCH   3  10
ATOM      9  N   UNL     1      47.505   3.165   5.451  0.00  0.00    +0.000 N 
ATOM     10  C   UNL     1      47.444   2.368   6.558  0.00  0.00    +0.000 C 
ATOM     11  O   UNL     1      48.263   1.477   6.743  0.00  0.00    +0.000 OA
ATOM     12  H   UNL     1      48.308   3.027   4.850  0.00  0.00    +0.000 HD
ATOM     13  H   UNL     1      47.035   4.058   5.401  0.00  0.00    +0.000 HD
ENDBRANCH   3  10
ENDBRANCH   2   6
ENDBRANCH   1   2
BRANCH   1  14
ATOM     14  C   UNL     1      43.864   4.615  12.389  0.00  0.00    +0.000 C 
BRANCH  14  15
ATOM     15  C   UNL     1      45.249   5.188  12.576  0.00  0.00    +0.000 A 
ATOM     16  C   UNL     1      45.772   6.106  11.657  0.00  0.00    +0.000 A 
ATOM     17  C   UNL     1      47.029   6.680  11.867  0.00  0.00    +0.000 A 
ATOM     18  C   UNL     1      47.780   6.346  12.999  0.00  0.00    +0.000 A 
ATOM     19  C   UNL     1      47.273   5.433  13.919  0.00  0.00    +0.000 A 
ATOM     20  C   UNL     1      46.010   4.866  13.711  0.00  0.00    +0.000 A 
BRANCH  19  21
ATOM     21  O   UNL     1      47.902   5.057  15.080  0.00  0.00    +0.000 OA
BRANCH  21  22
ATOM     22  C   UNL     1      47.235   4.149  15.985  0.00  0.00    +0.000 C 
ATOM     23  C   UNL     1      47.244   4.522  17.486  0.00  0.00    +0.000 C 
ATOM     24  C   UNL     1      47.730   3.107  17.825  0.00  0.00    +0.000 C 
ATOM     25  C   UNL     1      48.072   2.896  16.346  0.00  0.00    +0.000 C 
ENDBRANCH  21  22
ENDBRANCH  19  21
ENDBRANCH  14  15
ENDBRANCH   1  14
TORSDOF 7
ENDMDL
MODEL 2
REMARK VINA RESULT:    -7.433      2.025      3.583
REMARK INTER + INTRA:         -11.549
REMARK INTER:                 -10.569
REMARK INTRA:                  -0.980
REMARK UNBOUND:                -1.075
REMARK  Name = 
REMARK  7 active torsions:
REMARK  status: ('A' for Active; 'I' for Inactive)
REMARK    1  A    between atoms: C_2  and  C_4
REMARK    2  A    between atoms: C_7  and  O_8
REMARK    3  A    between atoms: O_8  and  C_9
REMARK    4  A    between atoms: C_9  and  C_10
REMARK    5  A    between atoms: C_10  and  C_11
REMARK    6  A    between atoms: C_15  and  O_16
REMARK    7  A    between atoms: O_16  and  C_17
REMARK                            x       y       z     vdW  Elec       q    Type
REMARK                         _______ _______ _______ _____ _____    ______ ____
ROOT
ATOM      1  C   UNL     1      43.271   4.006  11.210  0.00  0.00    +0.000 C 
ENDROOT
BRANCH   1   2
ATOM      2  O   UNL     1      43.656   4.705  10.015  0.00  0.00    +0.000 OA
BRANCH   2   6
ATOM      3  C   UNL     1      46.382   2.516   7.825  0.00  0.00    +0.000 A 
ATOM      4  C   UNL     1      45.502   1.854   8.683  0.00  0.00    +0.000 A 
ATOM      5  C   UNL     1      44.583   2.602   9.428  0.00  0.00    +0.000 A 
ATOM      6  C   UNL     1      44.582   3.981   9.284  0.00  0.00    +0.000 A 
ATOM      7  N   UNL     1      45.435   4.641   8.468  0.00  0.00    +0.000 NA
ATOM      8  C   UNL     1      46.320   3.898   7.766  0.00  0.00    +0.000 A 
BRANCH   3  10
ATOM      9  N   UNL     1      48.399   2.587   6.473  0.00  0.00    +0.000 N 
ATOM     10  C   UNL     1      47.384   1.828   6.984  0.00  0.00    +0.000 C 
ATOM     11  O   UNL     1      47.338   0.620   6.790  0.00  0.00    +0.000 OA
ATOM     12  H   UNL     1      49.140   2.078   6.007  0.00  0.00    +0.000 HD
ATOM     13  H   UNL     1      48.619   3.506   6.830  0.00  0.00    +0.000 HD
ENDBRANCH   3  10
ENDBRANCH   2   6
ENDBRANCH   1   2
BRANCH   1  14
ATOM     14  C   UNL     1      43.312   4.945  12.415  0.00  0.00    +0.000 C 
BRANCH  14  15
ATOM     15  C   UNL     1      44.736   5.273  12.800  0.00  0.00    +0.000 A 
ATOM     16  C   UNL     1      45.605   4.266  13.238  0.00  0.00    +0.000 A 
ATOM     17  C   UNL     1      46.939   4.564  13.534  0.00  0.00    +0.000 A 
ATOM     18  C   UNL     1      47.421   5.869  13.395  0.00  0.00    +0.000 A 
ATOM     19  C   UNL     1      46.566   6.879  12.964  0.00  0.00    +0.000 A 
ATOM     20  C   UNL     1      45.233   6.577  12.659  0.00  0.00    +0.000 A 
BRANCH  19  21
ATOM     21  O   UNL     1      46.935   8.185  12.757  0.00  0.00    +0.000 OA
BRANCH  21  22
ATOM     22  C   UNL     1      48.305   8.487  12.410  0.00  0.00    +0.000 C 
ATOM     23  C   UNL     1      49.190   9.104  13.518  0.00  0.00    +0.000 C 
ATOM     24  C   UNL     1      49.625  10.205  12.543  0.00  0.00    +0.000 C 
ATOM     25  C   UNL     1      48.475   9.805  11.614  0.00  0.00    +0.000 C 
ENDBRANCH  21  22
ENDBRANCH  19  21
ENDBRANCH  14  15
ENDBRANCH   1  14
TORSDOF 7
ENDMDL
MODEL 3
REMARK VINA RESULT:    -7.389      1.511      1.829
REMARK INTER + INTRA:         -11.488
REMARK INTER:                 -10.586
REMARK INTRA:                  -0.902
REMARK UNBOUND:                -1.075
REMARK  Name = 
REMARK  7 active torsions:
REMARK  status: ('A' for Active; 'I' for Inactive)
REMARK    1  A    between atoms: C_2  and  C_4
REMARK    2  A    between atoms: C_7  and  O_8
REMARK    3  A    between atoms: O_8  and  C_9
REMARK    4  A    between atoms: C_9  and  C_10
REMARK    5  A    between atoms: C_10  and  C_11
REMARK    6  A    between atoms: C_15  and  O_16
REMARK    7  A    between atoms: O_16  and  C_17
REMARK                            x       y       z     vdW  Elec       q    Type
REMARK                         _______ _______ _______ _____ _____    ______ ____
ROOT
ATOM      1  C   UNL     1      43.822   4.255  11.168  0.00  0.00    +0.000 C 
ENDROOT
BRANCH   1   2
ATOM      2  O   UNL     1      43.557   3.098  10.359  0.00  0.00    +0.000 OA
BRANCH   2   6
ATOM      3  C   UNL     1      46.469   2.641   7.473  0.00  0.00    +0.000 A 
ATOM      4  C   UNL     1      45.913   3.902   7.692  0.00  0.00    +0.000 A 
ATOM      5  C   UNL     1      44.921   4.050   8.667  0.00  0.00    +0.000 A 
ATOM      6  C   UNL     1      44.527   2.931   9.386  0.00  0.00    +0.000 A 
ATOM      7  N   UNL     1      45.045   1.699   9.179  0.00  0.00    +0.000 NA
ATOM      8  C   UNL     1      45.995   1.579   8.224  0.00  0.00    +0.000 A 
BRANCH   3  10
ATOM      9  N   UNL     1      47.417   2.983   5.262  0.00  0.00    +0.000 N 
ATOM     10  C   UNL     1      47.528   2.370   6.477  0.00  0.00    +0.000 C 
ATOM     11  O   UNL     1      48.493   1.665   6.744  0.00  0.00    +0.000 OA
ATOM     12  H   UNL     1      48.212   2.887   4.643  0.00  0.00    +0.000 HD
ATOM     13  H   UNL     1      46.800   3.769   5.108  0.00  0.00    +0.000 HD
ENDBRANCH   3  10
ENDBRANCH   2   6
ENDBRANCH   1   2
BRANCH   1  14
ATOM     14  C   UNL     1      44.670   3.876  12.382  0.00  0.00    +0.000 C 
BRANCH  14  15
ATOM     15  C   UNL     1      45.801   4.859  12.581  0.00  0.00    +0.000 A 
ATOM     16  C   UNL     1      46.046   5.864  11.637  0.00  0.00    +0.000 A 
ATOM     17  C   UNL     1      47.054   6.808  11.856  0.00  0.00    +0.000 A 
ATOM     18  C   UNL     1      47.828   6.761  13.020  0.00  0.00    +0.000 A 
ATOM     19  C   UNL     1      47.596   5.765  13.963  0.00  0.00    +0.000 A 
ATOM     20  C   UNL     1      46.581   4.826  13.747  0.00  0.00    +0.000 A 
BRANCH  19  21
ATOM     21  O   UNL     1      48.267   5.641  15.155  0.00  0.00    +0.000 OA
BRANCH  21  22
ATOM     22  C   UNL     1      48.854   6.814  15.763  0.00  0.00    +0.000 C 
ATOM     23  C   UNL     1      50.317   7.142  15.383  0.00  0.00    +0.000 C 
ATOM     24  C   UNL     1      50.661   7.281  16.872  0.00  0.00    +0.000 C 
ATOM     25  C   UNL     1      49.336   6.593  17.218  0.00  0.00    +0.000 C 
ENDBRANCH  21  22
ENDBRANCH  19  21
ENDBRANCH  14  15
ENDBRANCH   1  14
TORSDOF 7
ENDMDL
MODEL 4
REMARK VINA RESULT:    -7.117      2.849      4.978
REMARK INTER + INTRA:         -11.104
REMARK INTER:                 -10.435
REMARK INTRA:                  -0.669
REMARK UNBOUND:                -1.075
REMARK  Name = 
REMARK  7 active torsions:
REMARK  status: ('A' for Active; 'I' for Inactive)
REMARK    1  A    between atoms: C_2  and  C_4
REMARK    2  A    between atoms: C_7  and  O_8
REMARK    3  A    between atoms: O_8  and  C_9
REMARK    4  A    between atoms: C_9  and  C_10
REMARK    5  A    between atoms: C_10  and  C_11
REMARK    6  A    between atoms: C_15  and  O_16
REMARK    7  A    between atoms: O_16  and  C_17
REMARK                            x       y       z     vdW  Elec       q    Type
REMARK                         _______ _______ _______ _____ _____    ______ ____
ROOT
ATOM      1  C   UNL     1      43.891   4.999  10.763  0.00  0.00    +0.000 C 
ENDROOT
BRANCH   1   2
ATOM      2  O   UNL     1      43.583   3.752  10.120  0.00  0.00    +0.000 OA
BRANCH   2   6
ATOM      3  C   UNL     1      46.514   2.628   7.444  0.00  0.00    +0.000 A 
ATOM      4  C   UNL     1      45.997   1.682   8.331  0.00  0.00    +0.000 A 
ATOM      5  C   UNL     1      45.007   2.071   9.241  0.00  0.00    +0.000 A 
ATOM      6  C   UNL     1      44.575   3.388   9.226  0.00  0.00    +0.000 A 
ATOM      7  N   UNL     1      45.072   4.321   8.383  0.00  0.00    +0.000 NA
ATOM      8  C   UNL     1      46.035   3.925   7.519  0.00  0.00    +0.000 A 
BRANCH   3  10
ATOM      9  N   UNL     1      47.443   2.945   5.222  0.00  0.00    +0.000 N 
ATOM     10  C   UNL     1      47.552   2.327   6.435  0.00  0.00    +0.000 C 
ATOM     11  O   UNL     1      48.499   1.592   6.687  0.00  0.00    +0.000 OA
ATOM     12  H   UNL     1      48.227   2.826   4.592  0.00  0.00    +0.000 HD
ATOM     13  H   UNL     1      46.848   3.749   5.077  0.00  0.00    +0.000 HD
ENDBRANCH   3  10
ENDBRANCH   2   6
ENDBRANCH   1   2
BRANCH   1  14
ATOM     14  C   UNL     1      45.205   4.892  11.537  0.00  0.00    +0.000 C 
BRANCH  14  15
ATOM     15  C   UNL     1      45.605   6.230  12.115  0.00  0.00    +0.000 A 
ATOM     16  C   UNL     1      46.734   6.344  12.935  0.00  0.00    +0.000 A 
ATOM     17  C   UNL     1      47.135   7.593  13.417  0.00  0.00    +0.000 A 
ATOM     18  C   UNL     1      46.414   8.745  13.085  0.00  0.00    +0.000 A 
ATOM     19  C   UNL     1      45.288   8.645  12.273  0.00  0.00    +0.000 A 
ATOM     20  C   UNL     1      44.893   7.394  11.784  0.00  0.00    +0.000 A 
BRANCH  19  21
ATOM     21  O   UNL     1      44.526   9.707  11.854  0.00  0.00    +0.000 OA
BRANCH  21  22
ATOM     22  C   UNL     1      43.798   9.609  10.609  0.00  0.00    +0.000 C 
ATOM     23  C   UNL     1      43.996  10.754   9.589  0.00  0.00    +0.000 C 
ATOM     24  C   UNL     1      42.474  10.881   9.451  0.00  0.00    +0.000 C 
ATOM     25  C   UNL     1      42.312  10.033  10.716  0.00  0.00    +0.000 C 
ENDBRANCH  21  22
ENDBRANCH  19  21
ENDBRANCH  14  15
ENDBRANCH   1  14
TORSDOF 7
ENDMDL
MODEL 5
REMARK VINA RESULT:    -6.791      3.177      8.269
REMARK INTER + INTRA:         -10.645
REMARK INTER:                  -9.969
REMARK INTRA:                  -0.676
REMARK UNBOUND:                -1.075
REMARK  Name = 
REMARK  7 active torsions:
REMARK  status: ('A' for Active; 'I' for Inactive)
REMARK    1  A    between atoms: C_2  and  C_4
REMARK    2  A    between atoms: C_7  and  O_8
REMARK    3  A    between atoms: O_8  and  C_9
REMARK    4  A    between atoms: C_9  and  C_10
REMARK    5  A    between atoms: C_10  and  C_11
REMARK    6  A    between atoms: C_15  and  O_16
REMARK    7  A    between atoms: O_16  and  C_17
REMARK                            x       y       z     vdW  Elec       q    Type
REMARK                         _______ _______ _______ _____ _____    ______ ____
ROOT
ATOM      1  C   UNL     1      45.936   6.410  13.099  0.00  0.00    +0.000 C 
ENDROOT
BRANCH   1   2
ATOM      2  O   UNL     1      47.219   5.764  13.131  0.00  0.00    +0.000 OA
BRANCH   2   6
ATOM      3  C   UNL     1      48.295   4.697  16.968  0.00  0.00    +0.000 A 
ATOM      4  C   UNL     1      47.352   3.930  16.281  0.00  0.00    +0.000 A 
ATOM      5  C   UNL     1      46.986   4.300  14.983  0.00  0.00    +0.000 A 
ATOM      6  C   UNL     1      47.579   5.422  14.423  0.00  0.00    +0.000 A 
ATOM      7  N   UNL     1      48.484   6.184  15.076  0.00  0.00    +0.000 NA
ATOM      8  C   UNL     1      48.815   5.813  16.334  0.00  0.00    +0.000 A 
BRANCH   3  10
ATOM      9  N   UNL     1      48.115   3.401  19.014  0.00  0.00    +0.000 N 
ATOM     10  C   UNL     1      48.763   4.394  18.337  0.00  0.00    +0.000 C 
ATOM     11  O   UNL     1      49.723   4.974  18.829  0.00  0.00    +0.000 OA
ATOM     12  H   UNL     1      48.529   3.124  19.896  0.00  0.00    +0.000 HD
ATOM     13  H   UNL     1      47.518   2.731  18.550  0.00  0.00    +0.000 HD
ENDBRANCH   3  10
ENDBRANCH   2   6
ENDBRANCH   1   2
BRANCH   1  14
ATOM     14  C   UNL     1      45.561   6.784  11.665  0.00  0.00    +0.000 C 
BRANCH  14  15
ATOM     15  C   UNL     1      45.213   5.556  10.857  0.00  0.00    +0.000 A 
ATOM     16  C   UNL     1      44.347   4.584  11.374  0.00  0.00    +0.000 A 
ATOM     17  C   UNL     1      43.980   3.480  10.599  0.00  0.00    +0.000 A 
ATOM     18  C   UNL     1      44.471   3.334   9.298  0.00  0.00    +0.000 A 
ATOM     19  C   UNL     1      45.335   4.291   8.774  0.00  0.00    +0.000 A 
ATOM     20  C   UNL     1      45.695   5.400   9.549  0.00  0.00    +0.000 A 
BRANCH  19  21
ATOM     21  O   UNL     1      45.850   4.270   7.501  0.00  0.00    +0.000 OA
BRANCH  21  22
ATOM     22  C   UNL     1      46.046   3.002   6.837  0.00  0.00    +0.000 C 
ATOM     23  C   UNL     1      47.059   2.025   7.477  0.00  0.00    +0.000 C 
ATOM     24  C   UNL     1      47.734   1.845   6.112  0.00  0.00    +0.000 C 
ATOM     25  C   UNL     1      46.979   3.077   5.603  0.00  0.00    +0.000 C 
ENDBRANCH  21  22
ENDBRANCH  19  21
ENDBRANCH  14  15
ENDBRANCH   1  14
TORSDOF 7
ENDMDL
MODEL 6
REMARK VINA RESULT:    -6.739      2.539      3.261
REMARK INTER + INTRA:         -10.571
REMARK INTER:                 -10.088
REMARK INTRA:                  -0.483
REMARK UNBOUND:                -1.075
REMARK  Name = 
REMARK  7 active torsions:
REMARK  status: ('A' for Active; 'I' for Inactive)
REMARK    1  A    between atoms: C_2  and  C_4
REMARK    2  A    between atoms: C_7  and  O_8
REMARK    3  A    between atoms: O_8  and  C_9
REMARK    4  A    between atoms: C_9  and  C_10
REMARK    5  A    between atoms: C_10  and  C_11
REMARK    6  A    between atoms: C_15  and  O_16
REMARK    7  A    between atoms: O_16  and  C_17
REMARK                            x       y       z     vdW  Elec       q    Type
REMARK                         _______ _______ _______ _____ _____    ______ ____
ROOT
ATOM      1  C   UNL     1      43.643   5.076  10.824  0.00  0.00    +0.000 C 
ENDROOT
BRANCH   1   2
ATOM      2  O   UNL     1      43.401   3.724  10.403  0.00  0.00    +0.000 OA
BRANCH   2   6
ATOM      3  C   UNL     1      46.314   2.478   7.761  0.00  0.00    +0.000 A 
ATOM      4  C   UNL     1      45.934   3.821   7.779  0.00  0.00    +0.000 A 
ATOM      5  C   UNL     1      44.941   4.237   8.673  0.00  0.00    +0.000 A 
ATOM      6  C   UNL     1      44.370   3.293   9.513  0.00  0.00    +0.000 A 
ATOM      7  N   UNL     1      44.715   1.986   9.501  0.00  0.00    +0.000 NA
ATOM      8  C   UNL     1      45.670   1.605   8.622  0.00  0.00    +0.000 A 
BRANCH   3  10
ATOM      9  N   UNL     1      48.363   2.772   6.490  0.00  0.00    +0.000 N 
ATOM     10  C   UNL     1      47.357   1.930   6.868  0.00  0.00    +0.000 C 
ATOM     11  O   UNL     1      47.350   0.756   6.518  0.00  0.00    +0.000 OA
ATOM     12  H   UNL     1      49.130   2.347   5.984  0.00  0.00    +0.000 HD
ATOM     13  H   UNL     1      48.548   3.642   6.969  0.00  0.00    +0.000 HD
ENDBRANCH   3  10
ENDBRANCH   2   6
ENDBRANCH   1   2
BRANCH   1  14
ATOM     14  C   UNL     1      44.823   5.131  11.794  0.00  0.00    +0.000 C 
BRANCH  14  15
ATOM     15  C   UNL     1      45.277   6.555  12.016  0.00  0.00    +0.000 A 
ATOM     16  C   UNL     1      44.576   7.625  11.444  0.00  0.00    +0.000 A 
ATOM     17  C   UNL     1      44.964   8.943  11.703  0.00  0.00    +0.000 A 
ATOM     18  C   UNL     1      46.055   9.210  12.535  0.00  0.00    +0.000 A 
ATOM     19  C   UNL     1      46.762   8.156  13.107  0.00  0.00    +0.000 A 
ATOM     20  C   UNL     1      46.367   6.837  12.854  0.00  0.00    +0.000 A 
BRANCH  19  21
ATOM     21  O   UNL     1      47.823   8.297  13.966  0.00  0.00    +0.000 OA
BRANCH  21  22
ATOM     22  C   UNL     1      49.170   8.244  13.443  0.00  0.00    +0.000 C 
ATOM     23  C   UNL     1      49.526   9.244  12.319  0.00  0.00    +0.000 C 
ATOM     24  C   UNL     1      50.099   8.091  11.487  0.00  0.00    +0.000 C 
ATOM     25  C   UNL     1      49.403   7.099  12.425  0.00  0.00    +0.000 C 
ENDBRANCH  21  22
ENDBRANCH  19  21
ENDBRANCH  14  15
ENDBRANCH   1  14
TORSDOF 7
ENDMDL
MODEL 7
REMARK VINA RESULT:    -6.647      3.616      8.179
REMARK INTER + INTRA:         -10.441
REMARK INTER:                  -9.746
REMARK INTRA:                  -0.695
REMARK UNBOUND:                -1.075
REMARK  Name = 
REMARK  7 active torsions:
REMARK  status: ('A' for Active; 'I' for Inactive)
REMARK    1  A    between atoms: C_2  and  C_4
REMARK    2  A    between atoms: C_7  and  O_8
REMARK    3  A    between atoms: O_8  and  C_9
REMARK    4  A    between atoms: C_9  and  C_10
REMARK    5  A    between atoms: C_10  and  C_11
REMARK    6  A    between atoms: C_15  and  O_16
REMARK    7  A    between atoms: O_16  and  C_17
REMARK                            x       y       z     vdW  Elec       q    Type
REMARK                         _______ _______ _______ _____ _____    ______ ____
ROOT
ATOM      1  C   UNL     1      46.957   4.060  14.166  0.00  0.00    +0.000 C 
ENDROOT
BRANCH   1   2
ATOM      2  O   UNL     1      46.820   3.878  15.585  0.00  0.00    +0.000 OA
BRANCH   2   6
ATOM      3  C   UNL     1      50.437   3.051  17.389  0.00  0.00    +0.000 A 
ATOM      4  C   UNL     1      49.877   4.322  17.526  0.00  0.00    +0.000 A 
ATOM      5  C   UNL     1      48.653   4.600  16.907  0.00  0.00    +0.000 A 
ATOM      6  C   UNL     1      48.038   3.593  16.177  0.00  0.00    +0.000 A 
ATOM      7  N   UNL     1      48.570   2.360  16.022  0.00  0.00    +0.000 NA
ATOM      8  C   UNL     1      49.759   2.119  16.621  0.00  0.00    +0.000 A 
BRANCH   3  10
ATOM      9  N   UNL     1      52.203   3.430  19.012  0.00  0.00    +0.000 N 
ATOM     10  C   UNL     1      51.716   2.645  18.007  0.00  0.00    +0.000 C 
ATOM     11  O   UNL     1      52.296   1.620  17.667  0.00  0.00    +0.000 OA
ATOM     12  H   UNL     1      53.010   3.069  19.505  0.00  0.00    +0.000 HD
ATOM     13  H   UNL     1      51.629   4.108  19.494  0.00  0.00    +0.000 HD
ENDBRANCH   3  10
ENDBRANCH   2   6
ENDBRANCH   1   2
BRANCH   1  14
ATOM     14  C   UNL     1      46.262   5.347  13.722  0.00  0.00    +0.000 C 
BRANCH  14  15
ATOM     15  C   UNL     1      45.311   5.082  12.579  0.00  0.00    +0.000 A 
ATOM     16  C   UNL     1      43.940   4.915  12.815  0.00  0.00    +0.000 A 
ATOM     17  C   UNL     1      43.056   4.731  11.748  0.00  0.00    +0.000 A 
ATOM     18  C   UNL     1      43.528   4.714  10.432  0.00  0.00    +0.000 A 
ATOM     19  C   UNL     1      44.888   4.876  10.184  0.00  0.00    +0.000 A 
ATOM     20  C   UNL     1      45.771   5.068  11.253  0.00  0.00    +0.000 A 
BRANCH  19  21
ATOM     21  O   UNL     1      45.459   4.912   8.936  0.00  0.00    +0.000 OA
BRANCH  21  22
ATOM     22  C   UNL     1      45.343   3.761   8.070  0.00  0.00    +0.000 C 
ATOM     23  C   UNL     1      45.664   2.382   8.691  0.00  0.00    +0.000 C 
ATOM     24  C   UNL     1      46.591   2.076   7.508  0.00  0.00    +0.000 C 
ATOM     25  C   UNL     1      46.554   3.560   7.126  0.00  0.00    +0.000 C 
ENDBRANCH  21  22
ENDBRANCH  19  21
ENDBRANCH  14  15
ENDBRANCH   1  14
TORSDOF 7
ENDMDL
MODEL 8
REMARK VINA RESULT:    -6.193      3.607      8.830
REMARK INTER + INTRA:          -9.802
REMARK INTER:                  -9.191
REMARK INTRA:                  -0.611
REMARK UNBOUND:                -1.075
REMARK  Name = 
REMARK  7 active torsions:
REMARK  status: ('A' for Active; 'I' for Inactive)
REMARK    1  A    between atoms: C_2  and  C_4
REMARK    2  A    between atoms: C_7  and  O_8
REMARK    3  A    between atoms: O_8  and  C_9
REMARK    4  A    between atoms: C_9  and  C_10
REMARK    5  A    between atoms: C_10  and  C_11
REMARK    6  A    between atoms: C_15  and  O_16
REMARK    7  A    between atoms: O_16  and  C_17
REMARK                            x       y       z     vdW  Elec       q    Type
REMARK                         _______ _______ _______ _____ _____    ______ ____
ROOT
ATOM      1  C   UNL     1      46.818   5.253  13.996  0.00  0.00    +0.000 C 
ENDROOT
BRANCH   1   2
ATOM      2  O   UNL     1      48.117   5.633  14.478  0.00  0.00    +0.000 OA
BRANCH   2   6
ATOM      3  C   UNL     1      48.374   5.299  18.582  0.00  0.00    +0.000 A 
ATOM      4  C   UNL     1      49.247   6.155  17.907  0.00  0.00    +0.000 A 
ATOM      5  C   UNL     1      49.160   6.259  16.515  0.00  0.00    +0.000 A 
ATOM      6  C   UNL     1      48.201   5.505  15.854  0.00  0.00    +0.000 A 
ATOM      7  N   UNL     1      47.356   4.662  16.488  0.00  0.00    +0.000 NA
ATOM      8  C   UNL     1      47.466   4.570  17.833  0.00  0.00    +0.000 A 
BRANCH   3  10
ATOM      9  N   UNL     1      49.310   4.284  20.580  0.00  0.00    +0.000 N 
ATOM     10  C   UNL     1      48.369   5.118  20.049  0.00  0.00    +0.000 C 
ATOM     11  O   UNL     1      47.586   5.727  20.768  0.00  0.00    +0.000 OA
ATOM     12  H   UNL     1      49.372   4.271  21.590  0.00  0.00    +0.000 HD
ATOM     13  H   UNL     1      50.126   3.990  20.061  0.00  0.00    +0.000 HD
ENDBRANCH   3  10
ENDBRANCH   2   6
ENDBRANCH   1   2
BRANCH   1  14
ATOM     14  C   UNL     1      46.356   6.208  12.895  0.00  0.00    +0.000 C 
BRANCH  14  15
ATOM     15  C   UNL     1      45.463   5.499  11.903  0.00  0.00    +0.000 A 
ATOM     16  C   UNL     1      44.199   5.033  12.286  0.00  0.00    +0.000 A 
ATOM     17  C   UNL     1      43.353   4.433  11.349  0.00  0.00    +0.000 A 
ATOM     18  C   UNL     1      43.757   4.292  10.018  0.00  0.00    +0.000 A 
ATOM     19  C   UNL     1      45.012   4.749   9.625  0.00  0.00    +0.000 A 
ATOM     20  C   UNL     1      45.855   5.357  10.563  0.00  0.00    +0.000 A 
BRANCH  19  21
ATOM     21  O   UNL     1      45.500   4.697   8.343  0.00  0.00    +0.000 OA
BRANCH  21  22
ATOM     22  C   UNL     1      45.477   3.441   7.626  0.00  0.00    +0.000 C 
ATOM     23  C   UNL     1      46.031   2.202   8.366  0.00  0.00    +0.000 C 
ATOM     24  C   UNL     1      46.898   1.873   7.143  0.00  0.00    +0.000 C 
ATOM     25  C   UNL     1      46.628   3.281   6.603  0.00  0.00    +0.000 C 
ENDBRANCH  21  22
ENDBRANCH  19  21
ENDBRANCH  14  15
ENDBRANCH   1  14
TORSDOF 7
ENDMDL
MODEL 9
REMARK VINA RESULT:    -6.185      4.067      7.507
REMARK INTER + INTRA:          -9.791
REMARK INTER:                  -8.705
REMARK INTRA:                  -1.086
REMARK UNBOUND:                -1.075
REMARK  Name = 
REMARK  7 active torsions:
REMARK  status: ('A' for Active; 'I' for Inactive)
REMARK    1  A    between atoms: C_2  and  C_4
REMARK    2  A    between atoms: C_7  and  O_8
REMARK    3  A    between atoms: O_8  and  C_9
REMARK    4  A    between atoms: C_9  and  C_10
REMARK    5  A    between atoms: C_10  and  C_11
REMARK    6  A    between atoms: C_15  and  O_16
REMARK    7  A    between atoms: O_16  and  C_17
REMARK                            x       y       z     vdW  Elec       q    Type
REMARK                         _______ _______ _______ _____ _____    ______ ____
ROOT
ATOM      1  C   UNL     1      47.642   6.167  12.920  0.00  0.00    +0.000 C 
ENDROOT
BRANCH   1   2
ATOM      2  O   UNL     1      47.462   7.290  13.799  0.00  0.00    +0.000 OA
BRANCH   2   6
ATOM      3  C   UNL     1      45.818  10.520  11.830  0.00  0.00    +0.000 A 
ATOM      4  C   UNL     1      44.992   9.470  12.233  0.00  0.00    +0.000 A 
ATOM      5  C   UNL     1      45.555   8.374  12.894  0.00  0.00    +0.000 A 
ATOM      6  C   UNL     1      46.923   8.373  13.128  0.00  0.00    +0.000 A 
ATOM      7  N   UNL     1      47.741   9.375  12.734  0.00  0.00    +0.000 NA
ATOM      8  C   UNL     1      47.175  10.419  12.087  0.00  0.00    +0.000 A 
BRANCH   3  10
ATOM      9  N   UNL     1      44.470  12.541  11.817  0.00  0.00    +0.000 N 
ATOM     10  C   UNL     1      45.331  11.731  11.134  0.00  0.00    +0.000 C 
ATOM     11  O   UNL     1      45.717  12.023  10.009  0.00  0.00    +0.000 OA
ATOM     12  H   UNL     1      44.248  13.424  11.375  0.00  0.00    +0.000 HD
ATOM     13  H   UNL     1      44.351  12.480  12.819  0.00  0.00    +0.000 HD
ENDBRANCH   3  10
ENDBRANCH   2   6
ENDBRANCH   1   2
BRANCH   1  14
ATOM     14  C   UNL     1      46.809   4.977  13.397  0.00  0.00    +0.000 C 
BRANCH  14  15
ATOM     15  C   UNL     1      45.565   4.813  12.555  0.00  0.00    +0.000 A 
ATOM     16  C   UNL     1      44.300   4.763  13.154  0.00  0.00    +0.000 A 
ATOM     17  C   UNL     1      43.149   4.673  12.367  0.00  0.00    +0.000 A 
ATOM     18  C   UNL     1      43.245   4.633  10.972  0.00  0.00    +0.000 A 
ATOM     19  C   UNL     1      44.497   4.678  10.365  0.00  0.00    +0.000 A 
ATOM     20  C   UNL     1      45.648   4.777  11.155  0.00  0.00    +0.000 A 
BRANCH  19  21
ATOM     21  O   UNL     1      44.711   4.682   9.009  0.00  0.00    +0.000 OA
BRANCH  21  22
ATOM     22  C   UNL     1      44.792   3.424   8.301  0.00  0.00    +0.000 C 
ATOM     23  C   UNL     1      45.142   2.171   9.137  0.00  0.00    +0.000 C 
ATOM     24  C   UNL     1      46.228   1.806   8.117  0.00  0.00    +0.000 C 
ATOM     25  C   UNL     1      46.123   3.220   7.535  0.00  0.00    +0.000 C 
ENDBRANCH  21  22
ENDBRANCH  19  21
ENDBRANCH  14  15
ENDBRANCH   1  14
TORSDOF 7
ENDMDL
