MODEL 1
REMARK VINA RESULT:    -8.448      0.000      0.000
REMARK INTER + INTRA:         -12.414
REMARK INTER:                 -11.411
REMARK INTRA:                  -1.003
REMARK UNBOUND:                -1.003
REMARK  Name = 
REMARK  6 active torsions:
REMARK  status: ('A' for Active; 'I' for Inactive)
REMARK    1  A    between atoms: C_2  and  C_4
REMARK    2  A    between atoms: C_7  and  N_8
REMARK    3  A    between atoms: N_8  and  C_9
REMARK    4  A    between atoms: C_9  and  C_10
REMARK    5  A    between atoms: C_10  and  C_11
REMARK    6  A    between atoms: C_15  and  C_16
REMARK                            x       y       z     vdW  Elec       q    Type
REMARK                         _______ _______ _______ _____ _____    ______ ____
ROOT
ATOM      1  C   UNL     1      45.678   6.932  12.593  0.00  0.00    +0.000 C 
ENDROOT
BRANCH   1   2
ATOM      2  N   UNL     1      47.001   6.292  12.525  0.00  0.00    +0.000 N 
ATOM      3  H   UNL     1      47.749   6.969  12.404  0.00  0.00    +0.000 HD
BRANCH   2   7
ATOM      4  C   UNL     1      47.759   3.787  15.713  0.00  0.00    +0.000 A 
ATOM      5  C   UNL     1      48.079   5.133  15.776  0.00  0.00    +0.000 A 
ATOM      6  N   UNL     1      47.855   5.990  14.744  0.00  0.00    +0.000 NA
ATOM      7  C   UNL     1      47.300   5.469  13.629  0.00  0.00    +0.000 A 
ATOM      8  C   UNL     1      46.980   4.101  13.587  0.00  0.00    +0.000 A 
ATOM      9  N   UNL     1      47.203   3.224  14.605  0.00  0.00    +0.000 NA
BRANCH   4  11
ATOM     10  N   UNL     1      46.963   2.693  17.728  0.00  0.00    +0.000 N 
ATOM     11  C   UNL     1      48.020   2.912  16.888  0.00  0.00    +0.000 C 
ATOM     12  O   UNL     1      49.118   2.406  17.095  0.00  0.00    +0.000 OA
ATOM     13  H   UNL     1      47.084   2.086  18.526  0.00  0.00    +0.000 HD
ATOM     14  H   UNL     1      46.054   3.088  17.518  0.00  0.00    +0.000 HD
ENDBRANCH   4  11
ENDBRANCH   2   7
ENDBRANCH   1   2
BRANCH   1  15
ATOM     15  C   UNL     1      44.939   6.782  11.253  0.00  0.00    +0.000 C 
BRANCH  15  16
ATOM     16  C   UNL     1      44.648   5.336  10.921  0.00  0.00    +0.000 A 
ATOM     17  C   UNL     1      43.787   4.575  11.719  0.00  0.00    +0.000 A 
ATOM     18  C   UNL     1      43.503   3.248  11.390  0.00  0.00    +0.000 A 
ATOM     19  C   UNL     1      44.060   2.673  10.246  0.00  0.00    +0.000 A 
ATOM     20  C   UNL     1      44.902   3.421   9.415  0.00  0.00    +0.000 A 
ATOM     21  C   UNL     1      45.207   4.745   9.778  0.00  0.00    +0.000 A 
BRANCH  20  22
ATOM     22  C   UNL     1      45.434   2.817   8.124  0.00  0.00    +0.000 C 
ATOM     23  C   UNL     1      46.216   1.518   8.383  0.00  0.00    +0.000 C 
ATOM     24  C   UNL     1      46.843   0.961   7.107  0.00  0.00    +0.000 C 
ATOM     25  C   UNL     1      47.706   2.005   6.407  0.00  0.00    +0.000 C 
ATOM     26  C   UNL     1      46.903   3.261   6.090  0.00  0.00    +0.000 C 
ATOM     27  C   UNL     1      46.275   3.851   7.349  0.00  0.00    +0.000 C 
ENDBRANCH  20  22
ENDBRANCH  15  16
ENDBRANCH   1  15
TORSDOF 6
ENDMDL
MODEL 2
REMARK VINA RESULT:    -8.280      3.710      7.071
REMARK INTER + INTRA:         -12.187
REMARK INTER:                 -11.167
REMARK INTRA:                  -1.020
REMARK UNBOUND:                -1.003
REMARK  Name = 
REMARK  6 active torsions:
REMARK  status: ('A' for Active; 'I' for Inactive)
REMARK    1  A    between atoms: C_2  and  C_4
REMARK    2  A    between atoms: C_7  and  N_8
REMARK    3  A    between atoms: N_8  and  C_9
REMARK    4  A    between atoms: C_9  and  C_10
REMARK    5  A    between atoms: C_10  and  C_11
REMARK    6  A    between atoms: C_15  and  C_16
REMARK                            x       y       z     vdW  Elec       q    Type
REMARK                         _______ _______ _______ _____ _____    ______ ____
ROOT
ATOM      1  C   UNL     1      43.219   4.361  11.013  0.00  0.00    +0.000 C 
ENDROOT
BRANCH   1   2
ATOM      2  N   UNL     1      43.898   5.002   9.876  0.00  0.00    +0.000 N 
ATOM      3  H   UNL     1      44.430   5.822  10.158  0.00  0.00    +0.000 HD
BRANCH   2   7
ATOM      4  C   UNL     1      46.361   2.377   7.862  0.00  0.00    +0.000 A 
ATOM      5  C   UNL     1      46.363   3.728   7.557  0.00  0.00    +0.000 A 
ATOM      6  N   UNL     1      45.560   4.624   8.190  0.00  0.00    +0.000 NA
ATOM      7  C   UNL     1      44.738   4.139   9.146  0.00  0.00    +0.000 A 
ATOM      8  C   UNL     1      44.755   2.765   9.441  0.00  0.00    +0.000 A 
ATOM      9  N   UNL     1      45.545   1.849   8.815  0.00  0.00    +0.000 NA
BRANCH   4  11
ATOM     10  N   UNL     1      48.392   2.024   6.581  0.00  0.00    +0.000 N 
ATOM     11  C   UNL     1      47.278   1.456   7.137  0.00  0.00    +0.000 C 
ATOM     12  O   UNL     1      47.059   0.253   7.044  0.00  0.00    +0.000 OA
ATOM     13  H   UNL     1      49.057   1.437   6.099  0.00  0.00    +0.000 HD
ATOM     14  H   UNL     1      48.575   3.013   6.702  0.00  0.00    +0.000 HD
ENDBRANCH   4  11
ENDBRANCH   2   7
ENDBRANCH   1   2
BRANCH   1  15
ATOM     15  C   UNL     1      43.349   5.231  12.275  0.00  0.00    +0.000 C 
BRANCH  15  16
ATOM     16  C   UNL     1      44.777   5.319  12.763  0.00  0.00    +0.000 A 
ATOM     17  C   UNL     1      45.443   4.186  13.244  0.00  0.00    +0.000 A 
ATOM     18  C   UNL     1      46.771   4.272  13.667  0.00  0.00    +0.000 A 
ATOM     19  C   UNL     1      47.456   5.486  13.594  0.00  0.00    +0.000 A 
ATOM     20  C   UNL     1      46.821   6.628  13.091  0.00  0.00    +0.000 A 
ATOM     21  C   UNL     1      45.474   6.534  12.701  0.00  0.00    +0.000 A 
BRANCH  20  22
ATOM     22  C   UNL     1      47.600   7.925  12.931  0.00  0.00    +0.000 C 
ATOM     23  C   UNL     1      46.665   9.124  12.695  0.00  0.00    +0.000 C 
ATOM     24  C   UNL     1      47.440  10.412  12.427  0.00  0.00    +0.000 C 
ATOM     25  C   UNL     1      48.432  10.240  11.282  0.00  0.00    +0.000 C 
ATOM     26  C   UNL     1      49.399   9.095  11.559  0.00  0.00    +0.000 C 
ATOM     27  C   UNL     1      48.655   7.789  11.815  0.00  0.00    +0.000 C 
ENDBRANCH  20  22
ENDBRANCH  15  16
ENDBRANCH   1  15
TORSDOF 6
ENDMDL
MODEL 3
REMARK VINA RESULT:    -7.392      3.573      7.896
REMARK INTER + INTRA:         -10.987
REMARK INTER:                 -10.413
REMARK INTRA:                  -0.575
REMARK UNBOUND:                -1.003
REMARK  Name = 
REMARK  6 active torsions:
REMARK  status: ('A' for Active; 'I' for Inactive)
REMARK    1  A    between atoms: C_2  and  C_4
REMARK    2  A    between atoms: C_7  and  N_8
REMARK    3  A    between atoms: N_8  and  C_9
REMARK    4  A    between atoms: C_9  and  C_10
REMARK    5  A    between atoms: C_10  and  C_11
REMARK    6  A    between atoms: C_15  and  C_16
REMARK                            x       y       z     vdW  Elec       q    Type
REMARK                         _______ _______ _______ _____ _____    ______ ____
ROOT
ATOM      1  C   UNL     1      44.381   3.803  11.457  0.00  0.00    +0.000 C 
ENDROOT
BRANCH   1   2
ATOM      2  N   UNL     1      43.836   3.280  10.194  0.00  0.00    +0.000 N 
ATOM      3  H   UNL     1      43.129   3.893   9.798  0.00  0.00    +0.000 HD
BRANCH   2   7
ATOM      4  C   UNL     1      46.631   2.604   7.238  0.00  0.00    +0.000 A 
ATOM      5  C   UNL     1      46.228   1.581   8.080  0.00  0.00    +0.000 A 
ATOM      6  N   UNL     1      45.316   1.764   9.072  0.00  0.00    +0.000 NA
ATOM      7  C   UNL     1      44.811   3.009   9.214  0.00  0.00    +0.000 A 
ATOM      8  C   UNL     1      45.233   4.031   8.347  0.00  0.00    +0.000 A 
ATOM      9  N   UNL     1      46.149   3.872   7.352  0.00  0.00    +0.000 NA
BRANCH   4  11
ATOM     10  N   UNL     1      47.630   3.194   5.106  0.00  0.00    +0.000 N 
ATOM     11  C   UNL     1      47.623   2.326   6.163  0.00  0.00    +0.000 C 
ATOM     12  O   UNL     1      48.398   1.378   6.219  0.00  0.00    +0.000 OA
ATOM     13  H   UNL     1      48.302   3.062   4.364  0.00  0.00    +0.000 HD
ATOM     14  H   UNL     1      47.009   3.994   5.098  0.00  0.00    +0.000 HD
ENDBRANCH   4  11
ENDBRANCH   2   7
ENDBRANCH   1   2
BRANCH   1  15
ATOM     15  C   UNL     1      44.694   5.303  11.325  0.00  0.00    +0.000 C 
BRANCH  15  16
ATOM     16  C   UNL     1      45.929   5.698  12.102  0.00  0.00    +0.000 A 
ATOM     17  C   UNL     1      46.828   6.643  11.593  0.00  0.00    +0.000 A 
ATOM     18  C   UNL     1      47.951   7.020  12.329  0.00  0.00    +0.000 A 
ATOM     19  C   UNL     1      48.179   6.475  13.595  0.00  0.00    +0.000 A 
ATOM     20  C   UNL     1      47.281   5.550  14.140  0.00  0.00    +0.000 A 
ATOM     21  C   UNL     1      46.173   5.152  13.371  0.00  0.00    +0.000 A 
BRANCH  20  22
ATOM     22  C   UNL     1      47.488   5.028  15.553  0.00  0.00    +0.000 C 
ATOM     23  C   UNL     1      48.698   5.690  16.234  0.00  0.00    +0.000 C 
ATOM     24  C   UNL     1      48.977   5.097  17.613  0.00  0.00    +0.000 C 
ATOM     25  C   UNL     1      49.130   3.581  17.548  0.00  0.00    +0.000 C 
ATOM     26  C   UNL     1      47.896   2.928  16.938  0.00  0.00    +0.000 C 
ATOM     27  C   UNL     1      47.599   3.490  15.551  0.00  0.00    +0.000 C 
ENDBRANCH  20  22
ENDBRANCH  15  16
ENDBRANCH   1  15
TORSDOF 6
ENDMDL
MODEL 4
REMARK VINA RESULT:    -7.377      1.434      1.978
REMARK INTER + INTRA:         -10.967
REMARK INTER:                 -10.288
REMARK INTRA:                  -0.679
REMARK UNBOUND:                -1.003
REMARK  Name = 
REMARK  6 active torsions:
REMARK  status: ('A' for Active; 'I' for Inactive)
REMARK    1  A    between atoms: C_2  and  C_4
REMARK    2  A    between atoms: C_7  and  N_8
REMARK    3  A    between atoms: N_8  and  C_9
REMARK    4  A    between atoms: C_9  and  C_10
REMARK    5  A    between atoms: C_10  and  C_11
REMARK    6  A    between atoms: C_15  and  C_16
REMARK                            x       y       z     vdW  Elec       q    Type
REMARK                         _______ _______ _______ _____ _____    ______ ____
ROOT
ATOM      1  C   UNL     1      47.466   6.074  13.041  0.00  0.00    +0.000 C 
ENDROOT
BRANCH   1   2
ATOM      2  N   UNL     1      46.765   5.023  13.795  0.00  0.00    +0.000 N 
ATOM      3  H   UNL     1      46.704   4.152  13.274  0.00  0.00    +0.000 HD
BRANCH   2   7
ATOM      4  C   UNL     1      48.496   4.352  17.478  0.00  0.00    +0.000 A 
ATOM      5  C   UNL     1      47.696   3.390  16.885  0.00  0.00    +0.000 A 
ATOM      6  N   UNL     1      47.099   3.576  15.677  0.00  0.00    +0.000 NA
ATOM      7  C   UNL     1      47.316   4.760  15.065  0.00  0.00    +0.000 A 
ATOM      8  C   UNL     1      48.134   5.720  15.684  0.00  0.00    +0.000 A 
ATOM      9  N   UNL     1      48.736   5.559  16.895  0.00  0.00    +0.000 NA
BRANCH   4  11
ATOM     10  N   UNL     1      48.383   3.350  19.685  0.00  0.00    +0.000 N 
ATOM     11  C   UNL     1      49.129   4.074  18.796  0.00  0.00    +0.000 C 
ATOM     12  O   UNL     1      50.258   4.462  19.075  0.00  0.00    +0.000 OA
ATOM     13  H   UNL     1      48.778   3.114  20.584  0.00  0.00    +0.000 HD
ATOM     14  H   UNL     1      47.468   3.004  19.422  0.00  0.00    +0.000 HD
ENDBRANCH   4  11
ENDBRANCH   2   7
ENDBRANCH   1   2
BRANCH   1  15
ATOM     15  C   UNL     1      46.460   6.934  12.257  0.00  0.00    +0.000 C 
BRANCH  15  16
ATOM     16  C   UNL     1      45.399   6.096  11.580  0.00  0.00    +0.000 A 
ATOM     17  C   UNL     1      44.051   6.221  11.934  0.00  0.00    +0.000 A 
ATOM     18  C   UNL     1      43.076   5.462  11.284  0.00  0.00    +0.000 A 
ATOM     19  C   UNL     1      43.434   4.585  10.258  0.00  0.00    +0.000 A 
ATOM     20  C   UNL     1      44.772   4.463   9.866  0.00  0.00    +0.000 A 
ATOM     21  C   UNL     1      45.747   5.207  10.553  0.00  0.00    +0.000 A 
BRANCH  20  22
ATOM     22  C   UNL     1      45.144   3.574   8.689  0.00  0.00    +0.000 C 
ATOM     23  C   UNL     1      45.563   2.167   9.148  0.00  0.00    +0.000 C 
ATOM     24  C   UNL     1      46.039   1.301   7.984  0.00  0.00    +0.000 C 
ATOM     25  C   UNL     1      47.149   1.987   7.195  0.00  0.00    +0.000 C 
ATOM     26  C   UNL     1      46.700   3.350   6.683  0.00  0.00    +0.000 C 
ATOM     27  C   UNL     1      46.231   4.245   7.826  0.00  0.00    +0.000 C 
ENDBRANCH  20  22
ENDBRANCH  15  16
ENDBRANCH   1  15
TORSDOF 6
ENDMDL
MODEL 5
REMARK VINA RESULT:    -7.020      3.176      3.533
REMARK INTER + INTRA:         -10.484
REMARK INTER:                  -9.622
REMARK INTRA:                  -0.862
REMARK UNBOUND:                -1.003
REMARK  Name = 
REMARK  6 active torsions:
REMARK  status: ('A' for Active; 'I' for Inactive)
REMARK    1  A    between atoms: C_2  and  C_4
REMARK    2  A    between atoms: C_7  and  N_8
REMARK    3  A    between atoms: N_8  and  C_9
REMARK    4  A    between atoms: C_9  and  C_10
REMARK    5  A    between atoms: C_10  and  C_11
REMARK    6  A    between atoms: C_15  and  C_16
REMARK                            x       y       z     vdW  Elec       q    Type
REMARK                         _______ _______ _______ _____ _____    ______ ____
ROOT
ATOM      1  C   UNL     1      44.345   7.492  11.420  0.00  0.00    +0.000 C 
ENDROOT
BRANCH   1   2
ATOM      2  N   UNL     1      44.959   7.191  12.723  0.00  0.00    +0.000 N 
ATOM      3  H   UNL     1      44.881   6.206  12.966  0.00  0.00    +0.000 HD
BRANCH   2   7
ATOM      4  C   UNL     1      48.948   8.195  13.017  0.00  0.00    +0.000 A 
ATOM      5  C   UNL     1      47.974   8.978  13.613  0.00  0.00    +0.000 A 
ATOM      6  N   UNL     1      46.648   8.688  13.532  0.00  0.00    +0.000 NA
ATOM      7  C   UNL     1      46.307   7.585  12.829  0.00  0.00    +0.000 A 
ATOM      8  C   UNL     1      47.313   6.804  12.236  0.00  0.00    +0.000 A 
ATOM      9  N   UNL     1      48.645   7.079  12.298  0.00  0.00    +0.000 NA
BRANCH   4  11
ATOM     10  N   UNL     1      51.288   7.734  12.562  0.00  0.00    +0.000 N 
ATOM     11  C   UNL     1      50.383   8.567  13.161  0.00  0.00    +0.000 C 
ATOM     12  O   UNL     1      50.740   9.566  13.775  0.00  0.00    +0.000 OA
ATOM     13  H   UNL     1      52.271   7.957  12.611  0.00  0.00    +0.000 HD
ATOM     14  H   UNL     1      50.970   6.935  12.026  0.00  0.00    +0.000 HD
ENDBRANCH   4  11
ENDBRANCH   2   7
ENDBRANCH   1   2
BRANCH   1  15
ATOM     15  C   UNL     1      43.110   6.605  11.191  0.00  0.00    +0.000 C 
BRANCH  15  16
ATOM     16  C   UNL     1      43.478   5.151  11.007  0.00  0.00    +0.000 A 
ATOM     17  C   UNL     1      43.086   4.186  11.943  0.00  0.00    +0.000 A 
ATOM     18  C   UNL     1      43.408   2.842  11.751  0.00  0.00    +0.000 A 
ATOM     19  C   UNL     1      44.107   2.441  10.610  0.00  0.00    +0.000 A 
ATOM     20  C   UNL     1      44.485   3.382   9.644  0.00  0.00    +0.000 A 
ATOM     21  C   UNL     1      44.185   4.737   9.869  0.00  0.00    +0.000 A 
BRANCH  20  22
ATOM     22  C   UNL     1      45.166   2.928   8.362  0.00  0.00    +0.000 C 
ATOM     23  C   UNL     1      45.957   1.624   8.569  0.00  0.00    +0.000 C 
ATOM     24  C   UNL     1      46.730   1.218   7.316  0.00  0.00    +0.000 C 
ATOM     25  C   UNL     1      47.629   2.347   6.824  0.00  0.00    +0.000 C 
ATOM     26  C   UNL     1      46.825   3.613   6.554  0.00  0.00    +0.000 C 
ATOM     27  C   UNL     1      46.052   4.054   7.792  0.00  0.00    +0.000 C 
ENDBRANCH  20  22
ENDBRANCH  15  16
ENDBRANCH   1  15
TORSDOF 6
ENDMDL
MODEL 6
REMARK VINA RESULT:    -6.551      2.293      4.055
REMARK INTER + INTRA:          -9.852
REMARK INTER:                  -9.092
REMARK INTRA:                  -0.759
REMARK UNBOUND:                -1.003
REMARK  Name = 
REMARK  6 active torsions:
REMARK  status: ('A' for Active; 'I' for Inactive)
REMARK    1  A    between atoms: C_2  and  C_4
REMARK    2  A    between atoms: C_7  and  N_8
REMARK    3  A    between atoms: N_8  and  C_9
REMARK    4  A    between atoms: C_9  and  C_10
REMARK    5  A    between atoms: C_10  and  C_11
REMARK    6  A    between atoms: C_15  and  C_16
REMARK                            x       y       z     vdW  Elec       q    Type
REMARK                         _______ _______ _______ _____ _____    ______ ____
ROOT
ATOM      1  C   UNL     1      48.083   6.231  15.834  0.00  0.00    +0.000 C 
ENDROOT
BRANCH   1   2
ATOM      2  N   UNL     1      47.735   5.026  16.603  0.00  0.00    +0.000 N 
ATOM      3  H   UNL     1      46.982   4.498  16.168  0.00  0.00    +0.000 HD
BRANCH   2   7
ATOM      4  C   UNL     1      50.814   2.378  17.324  0.00  0.00    +0.000 A 
ATOM      5  C   UNL     1      50.951   3.724  17.621  0.00  0.00    +0.000 A 
ATOM      6  N   UNL     1      49.964   4.630  17.390  0.00  0.00    +0.000 NA
ATOM      7  C   UNL     1      48.821   4.162  16.844  0.00  0.00    +0.000 A 
ATOM      8  C   UNL     1      48.703   2.792  16.552  0.00  0.00    +0.000 A 
ATOM      9  N   UNL     1      49.680   1.869  16.769  0.00  0.00    +0.000 NA
BRANCH   4  11
ATOM     10  N   UNL     1      51.581   0.217  18.118  0.00  0.00    +0.000 N 
ATOM     11  C   UNL     1      51.932   1.441  17.618  0.00  0.00    +0.000 C 
ATOM     12  O   UNL     1      53.105   1.740  17.420  0.00  0.00    +0.000 OA
ATOM     13  H   UNL     1      52.303  -0.463  18.310  0.00  0.00    +0.000 HD
ATOM     14  H   UNL     1      50.605  -0.025  18.237  0.00  0.00    +0.000 HD
ENDBRANCH   4  11
ENDBRANCH   2   7
ENDBRANCH   1   2
BRANCH   1  15
ATOM     15  C   UNL     1      48.349   5.872  14.363  0.00  0.00    +0.000 C 
BRANCH  15  16
ATOM     16  C   UNL     1      47.266   6.391  13.444  0.00  0.00    +0.000 A 
ATOM     17  C   UNL     1      46.967   7.756  13.386  0.00  0.00    +0.000 A 
ATOM     18  C   UNL     1      45.984   8.229  12.515  0.00  0.00    +0.000 A 
ATOM     19  C   UNL     1      45.303   7.345  11.675  0.00  0.00    +0.000 A 
ATOM     20  C   UNL     1      45.603   5.978  11.694  0.00  0.00    +0.000 A 
ATOM     21  C   UNL     1      46.570   5.512  12.601  0.00  0.00    +0.000 A 
BRANCH  20  22
ATOM     22  C   UNL     1      44.922   5.034  10.715  0.00  0.00    +0.000 C 
ATOM     23  C   UNL     1      44.799   3.611  11.288  0.00  0.00    +0.000 C 
ATOM     24  C   UNL     1      44.213   2.632  10.272  0.00  0.00    +0.000 C 
ATOM     25  C   UNL     1      44.999   2.645   8.966  0.00  0.00    +0.000 C 
ATOM     26  C   UNL     1      45.054   4.046   8.370  0.00  0.00    +0.000 C 
ATOM     27  C   UNL     1      45.649   5.046   9.356  0.00  0.00    +0.000 C 
ENDBRANCH  20  22
ENDBRANCH  15  16
ENDBRANCH   1  15
TORSDOF 6
ENDMDL
MODEL 7
REMARK VINA RESULT:    -6.348      3.253      5.555
REMARK INTER + INTRA:          -9.577
REMARK INTER:                  -8.835
REMARK INTRA:                  -0.742
REMARK UNBOUND:                -1.003
REMARK  Name = 
REMARK  6 active torsions:
REMARK  status: ('A' for Active; 'I' for Inactive)
REMARK    1  A    between atoms: C_2  and  C_4
REMARK    2  A    between atoms: C_7  and  N_8
REMARK    3  A    between atoms: N_8  and  C_9
REMARK    4  A    between atoms: C_9  and  C_10
REMARK    5  A    between atoms: C_10  and  C_11
REMARK    6  A    between atoms: C_15  and  C_16
REMARK                            x       y       z     vdW  Elec       q    Type
REMARK                         _______ _______ _______ _____ _____    ______ ____
ROOT
ATOM      1  C   UNL     1      48.540   5.800  16.288  0.00  0.00    +0.000 C 
ENDROOT
BRANCH   1   2
ATOM      2  N   UNL     1      49.311   5.616  17.528  0.00  0.00    +0.000 N 
ATOM      3  H   UNL     1      48.725   5.673  18.356  0.00  0.00    +0.000 HD
BRANCH   2   7
ATOM      4  C   UNL     1      51.621   2.202  17.656  0.00  0.00    +0.000 A 
ATOM      5  C   UNL     1      50.354   2.181  17.098  0.00  0.00    +0.000 A 
ATOM      6  N   UNL     1      49.557   3.281  17.045  0.00  0.00    +0.000 NA
ATOM      7  C   UNL     1      50.055   4.421  17.572  0.00  0.00    +0.000 A 
ATOM      8  C   UNL     1      51.345   4.420  18.130  0.00  0.00    +0.000 A 
ATOM      9  N   UNL     1      52.156   3.329  18.200  0.00  0.00    +0.000 NA
BRANCH   4  11
ATOM     10  N   UNL     1      51.921  -0.106  18.346  0.00  0.00    +0.000 N 
ATOM     11  C   UNL     1      52.443   0.961  17.666  0.00  0.00    +0.000 C 
ATOM     12  O   UNL     1      53.525   0.889  17.095  0.00  0.00    +0.000 OA
ATOM     13  H   UNL     1      52.430  -0.977  18.361  0.00  0.00    +0.000 HD
ATOM     14  H   UNL     1      51.008  -0.038  18.779  0.00  0.00    +0.000 HD
ENDBRANCH   4  11
ENDBRANCH   2   7
ENDBRANCH   1   2
BRANCH   1  15
ATOM     15  C   UNL     1      49.282   6.745  15.329  0.00  0.00    +0.000 C 
BRANCH  15  16
ATOM     16  C   UNL     1      48.596   6.850  13.986  0.00  0.00    +0.000 A 
ATOM     17  C   UNL     1      49.141   7.630  12.959  0.00  0.00    +0.000 A 
ATOM     18  C   UNL     1      48.514   7.699  11.714  0.00  0.00    +0.000 A 
ATOM     19  C   UNL     1      47.346   6.971  11.473  0.00  0.00    +0.000 A 
ATOM     20  C   UNL     1      46.797   6.162  12.473  0.00  0.00    +0.000 A 
ATOM     21  C   UNL     1      47.419   6.130  13.733  0.00  0.00    +0.000 A 
BRANCH  20  22
ATOM     22  C   UNL     1      45.576   5.304  12.176  0.00  0.00    +0.000 C 
ATOM     23  C   UNL     1      45.220   5.319  10.679  0.00  0.00    +0.000 C 
ATOM     24  C   UNL     1      43.936   4.548  10.387  0.00  0.00    +0.000 C 
ATOM     25  C   UNL     1      42.777   5.046  11.243  0.00  0.00    +0.000 C 
ATOM     26  C   UNL     1      43.113   4.959  12.727  0.00  0.00    +0.000 C 
ATOM     27  C   UNL     1      44.385   5.734  13.055  0.00  0.00    +0.000 C 
ENDBRANCH  20  22
ENDBRANCH  15  16
ENDBRANCH   1  15
TORSDOF 6
ENDMDL
MODEL 8
REMARK VINA RESULT:    -6.236      3.424      7.590
REMARK INTER + INTRA:          -9.426
REMARK INTER:                  -8.649
REMARK INTRA:                  -0.777
REMARK UNBOUND:                -1.003
REMARK  Name = 
REMARK  6 active torsions:
REMARK  status: ('A' for Active; 'I' for Inactive)
REMARK    1  A    between atoms: C_2  and  C_4
REMARK    2  A    between atoms: C_7  and  N_8
REMARK    3  A    between atoms: N_8  and  C_9
REMARK    4  A    between atoms: C_9  and  C_10
REMARK    5  A    between atoms: C_10  and  C_11
REMARK    6  A    between atoms: C_15  and  C_16
REMARK                            x       y       z     vdW  Elec       q    Type
REMARK                         _______ _______ _______ _____ _____    ______ ____
ROOT
ATOM      1  C   UNL     1      47.209   8.207  12.439  0.00  0.00    +0.000 C 
ENDROOT
BRANCH   1   2
ATOM      2  N   UNL     1      46.235   7.561  13.332  0.00  0.00    +0.000 N 
ATOM      3  H   UNL     1      45.513   8.206  13.644  0.00  0.00    +0.000 HD
BRANCH   2   7
ATOM      4  C   UNL     1      44.559   4.124  11.786  0.00  0.00    +0.000 A 
ATOM      5  C   UNL     1      44.315   5.356  11.203  0.00  0.00    +0.000 A 
ATOM      6  N   UNL     1      44.840   6.513  11.687  0.00  0.00    +0.000 NA
ATOM      7  C   UNL     1      45.622   6.416  12.785  0.00  0.00    +0.000 A 
ATOM      8  C   UNL     1      45.858   5.155  13.358  0.00  0.00    +0.000 A 
ATOM      9  N   UNL     1      45.337   3.986  12.894  0.00  0.00    +0.000 NA
BRANCH   4  11
ATOM     10  N   UNL     1      44.624   2.357  10.123  0.00  0.00    +0.000 N 
ATOM     11  C   UNL     1      43.962   2.897  11.191  0.00  0.00    +0.000 C 
ATOM     12  O   UNL     1      42.937   2.388  11.633  0.00  0.00    +0.000 OA
ATOM     13  H   UNL     1      44.271   1.511   9.700  0.00  0.00    +0.000 HD
ATOM     14  H   UNL     1      45.490   2.770   9.797  0.00  0.00    +0.000 HD
ENDBRANCH   4  11
ENDBRANCH   2   7
ENDBRANCH   1   2
BRANCH   1  15
ATOM     15  C   UNL     1      48.636   8.030  12.983  0.00  0.00    +0.000 C 
BRANCH  15  16
ATOM     16  C   UNL     1      48.669   7.978  14.493  0.00  0.00    +0.000 A 
ATOM     17  C   UNL     1      48.438   9.127  15.258  0.00  0.00    +0.000 A 
ATOM     18  C   UNL     1      48.444   9.063  16.652  0.00  0.00    +0.000 A 
ATOM     19  C   UNL     1      48.659   7.845  17.300  0.00  0.00    +0.000 A 
ATOM     20  C   UNL     1      48.864   6.675  16.558  0.00  0.00    +0.000 A 
ATOM     21  C   UNL     1      48.891   6.761  15.155  0.00  0.00    +0.000 A 
BRANCH  20  22
ATOM     22  C   UNL     1      49.009   5.337  17.268  0.00  0.00    +0.000 C 
ATOM     23  C   UNL     1      50.467   4.850  17.272  0.00  0.00    +0.000 C 
ATOM     24  C   UNL     1      50.606   3.459  17.888  0.00  0.00    +0.000 C 
ATOM     25  C   UNL     1      49.681   2.454  17.212  0.00  0.00    +0.000 C 
ATOM     26  C   UNL     1      48.229   2.912  17.276  0.00  0.00    +0.000 C 
ATOM     27  C   UNL     1      48.054   4.293  16.655  0.00  0.00    +0.000 C 
ENDBRANCH  20  22
ENDBRANCH  15  16
ENDBRANCH   1  15
TORSDOF 6
ENDMDL
MODEL 9
REMARK VINA RESULT:    -6.141      2.565      4.028
REMARK INTER + INTRA:          -9.298
REMARK INTER:                  -8.632
REMARK INTRA:                  -0.667
REMARK UNBOUND:                -1.003
REMARK  Name = 
REMARK  6 active torsions:
REMARK  status: ('A' for Active; 'I' for Inactive)
REMARK    1  A    between atoms: C_2  and  C_4
REMARK    2  A    between atoms: C_7  and  N_8
REMARK    3  A    between atoms: N_8  and  C_9
REMARK    4  A    between atoms: C_9  and  C_10
REMARK    5  A    between atoms: C_10  and  C_11
REMARK    6  A    between atoms: C_15  and  C_16
REMARK                            x       y       z     vdW  Elec       q    Type
REMARK                         _______ _______ _______ _____ _____    ______ ____
ROOT
ATOM      1  C   UNL     1      48.962   7.583  14.539  0.00  0.00    +0.000 C 
ENDROOT
BRANCH   1   2
ATOM      2  N   UNL     1      50.114   6.945  15.194  0.00  0.00    +0.000 N 
ATOM      3  H   UNL     1      50.871   7.602  15.365  0.00  0.00    +0.000 HD
BRANCH   2   7
ATOM      4  C   UNL     1      49.128   5.142  18.770  0.00  0.00    +0.000 A 
ATOM      5  C   UNL     1      50.201   4.690  18.020  0.00  0.00    +0.000 A 
ATOM      6  N   UNL     1      50.553   5.250  16.832  0.00  0.00    +0.000 NA
ATOM      7  C   UNL     1      49.799   6.283  16.397  0.00  0.00    +0.000 A 
ATOM      8  C   UNL     1      48.717   6.727  17.176  0.00  0.00    +0.000 A 
ATOM      9  N   UNL     1      48.343   6.177  18.364  0.00  0.00    +0.000 NA
BRANCH   4  11
ATOM     10  N   UNL     1      48.411   3.181  20.009  0.00  0.00    +0.000 N 
ATOM     11  C   UNL     1      48.811   4.489  20.069  0.00  0.00    +0.000 C 
ATOM     12  O   UNL     1      48.906   5.080  21.139  0.00  0.00    +0.000 OA
ATOM     13  H   UNL     1      48.208   2.688  20.865  0.00  0.00    +0.000 HD
ATOM     14  H   UNL     1      48.377   2.699  19.119  0.00  0.00    +0.000 HD
ENDBRANCH   4  11
ENDBRANCH   2   7
ENDBRANCH   1   2
BRANCH   1  15
ATOM     15  C   UNL     1      48.805   7.062  13.101  0.00  0.00    +0.000 C 
BRANCH  15  16
ATOM     16  C   UNL     1      47.391   7.217  12.589  0.00  0.00    +0.000 A 
ATOM     17  C   UNL     1      46.694   8.420  12.754  0.00  0.00    +0.000 A 
ATOM     18  C   UNL     1      45.399   8.562  12.254  0.00  0.00    +0.000 A 
ATOM     19  C   UNL     1      44.792   7.511  11.563  0.00  0.00    +0.000 A 
ATOM     20  C   UNL     1      45.477   6.307  11.360  0.00  0.00    +0.000 A 
ATOM     21  C   UNL     1      46.768   6.166  11.900  0.00  0.00    +0.000 A 
BRANCH  20  22
ATOM     22  C   UNL     1      44.845   5.200  10.530  0.00  0.00    +0.000 C 
ATOM     23  C   UNL     1      44.696   3.899  11.337  0.00  0.00    +0.000 C 
ATOM     24  C   UNL     1      44.161   2.752  10.483  0.00  0.00    +0.000 C 
ATOM     25  C   UNL     1      45.009   2.543   9.234  0.00  0.00    +0.000 C 
ATOM     26  C   UNL     1      45.091   3.818   8.404  0.00  0.00    +0.000 C 
ATOM     27  C   UNL     1      45.637   4.981   9.226  0.00  0.00    +0.000 C 
ENDBRANCH  20  22
ENDBRANCH  15  16
ENDBRANCH   1  15
TORSDOF 6
ENDMDL
