MODEL 1
REMARK VINA RESULT:    -7.907      0.000      0.000
REMARK INTER + INTRA:         -10.840
REMARK INTER:                  -9.755
REMARK INTRA:                  -1.085
REMARK UNBOUND:                -1.085
REMARK  Name = 
REMARK  4 active torsions:
REMARK  status: ('A' for Active; 'I' for Inactive)
REMARK    1  A    between atoms: C_6  and  O_7
REMARK    2  A    between atoms: O_7  and  C_8
REMARK    3  A    between atoms: C_8  and  C_9
REMARK    4  A    between atoms: C_13  and  C_14
REMARK                            x       y       z     vdW  Elec       q    Type
REMARK                         _______ _______ _______ _____ _____    ______ ____
ROOT
ATOM      1  C   UNL     1      45.280   5.044  12.103  0.00  0.00    +0.000 A 
ATOM      2  C   UNL     1      45.764   4.186  13.100  0.00  0.00    +0.000 A 
ATOM      3  C   UNL     1      46.936   4.475  13.797  0.00  0.00    +0.000 A 
ATOM      4  C   UNL     1      47.662   5.631  13.504  0.00  0.00    +0.000 A 
ATOM      5  C   UNL     1      47.226   6.530  12.519  0.00  0.00    +0.000 A 
ATOM      6  C   UNL     1      46.017   6.225  11.862  0.00  0.00    +0.000 A 
ENDROOT
BRANCH   5   7
ATOM      7  C   UNL     1      48.022   7.717  12.140  0.00  0.00    +0.000 A 
ATOM      8  C   UNL     1      49.378   7.637  11.792  0.00  0.00    +0.000 A 
ATOM      9  C   UNL     1      50.107   8.788  11.489  0.00  0.00    +0.000 A 
ATOM     10  C   UNL     1      49.456  10.008  11.530  0.00  0.00    +0.000 A 
ATOM     11  N   UNL     1      48.156  10.146  11.850  0.00  0.00    +0.000 NA
ATOM     12  C   UNL     1      47.480   9.007  12.150  0.00  0.00    +0.000 A 
ENDBRANCH   5   7
BRANCH   1  13
ATOM     13  C   UNL     1      44.051   4.692  11.272  0.00  0.00    +0.000 C 
ATOM     14  C   UNL     1      42.684   4.780  11.956  0.00  0.00    +0.000 C 
ATOM     15  C   UNL     1      43.064   5.794  10.936  0.00  0.00    +0.000 C 
BRANCH  13  16
ATOM     16  O   UNL     1      44.125   3.491  10.471  0.00  0.00    +0.000 OA
BRANCH  16  22
ATOM     17 CL   UNL     1      46.660   0.122   7.752  0.00  0.00    +0.000 Cl
ATOM     18  C   UNL     1      46.217   1.751   8.083  0.00  0.00    +0.000 A 
ATOM     19  C   UNL     1      46.668   2.772   7.252  0.00  0.00    +0.000 A 
ATOM     20  C   UNL     1      46.306   4.091   7.526  0.00  0.00    +0.000 A 
ATOM     21  C   UNL     1      45.492   4.387   8.628  0.00  0.00    +0.000 A 
ATOM     22  C   UNL     1      45.022   3.361   9.448  0.00  0.00    +0.000 A 
ATOM     23  C   UNL     1      45.393   2.040   9.169  0.00  0.00    +0.000 A 
ENDBRANCH  16  22
ENDBRANCH  13  16
ENDBRANCH   1  13
TORSDOF 4
ENDMDL
MODEL 2
REMARK VINA RESULT:    -7.744      2.057      3.594
REMARK INTER + INTRA:         -10.640
REMARK INTER:                  -9.812
REMARK INTRA:                  -0.828
REMARK UNBOUND:                -1.085
REMARK  Name = 
REMARK  4 active torsions:
REMARK  status: ('A' for Active; 'I' for Inactive)
REMARK    1  A    between atoms: C_6  and  O_7
REMARK    2  A    between atoms: O_7  and  C_8
REMARK    3  A    between atoms: C_8  and  C_9
REMARK    4  A    between atoms: C_13  and  C_14
REMARK                            x       y       z     vdW  Elec       q    Type
REMARK                         _______ _______ _______ _____ _____    ______ ____
ROOT
ATOM      1  C   UNL     1      45.466   5.321  11.951  0.00  0.00    +0.000 A 
ATOM      2  C   UNL     1      46.098   6.440  11.390  0.00  0.00    +0.000 A 
ATOM      3  C   UNL     1      47.205   7.027  12.000  0.00  0.00    +0.000 A 
ATOM      4  C   UNL     1      47.704   6.512  13.198  0.00  0.00    +0.000 A 
ATOM      5  C   UNL     1      47.116   5.392  13.806  0.00  0.00    +0.000 A 
ATOM      6  C   UNL     1      46.023   4.802  13.141  0.00  0.00    +0.000 A 
ENDROOT
BRANCH   5   7
ATOM      7  C   UNL     1      47.580   4.882  15.114  0.00  0.00    +0.000 A 
ATOM      8  C   UNL     1      47.301   3.581  15.558  0.00  0.00    +0.000 A 
ATOM      9  C   UNL     1      47.715   3.154  16.821  0.00  0.00    +0.000 A 
ATOM     10  C   UNL     1      48.414   4.041  17.618  0.00  0.00    +0.000 A 
ATOM     11  N   UNL     1      48.715   5.298  17.243  0.00  0.00    +0.000 NA
ATOM     12  C   UNL     1      48.289   5.684  16.014  0.00  0.00    +0.000 A 
ENDBRANCH   5   7
BRANCH   1  13
ATOM     13  C   UNL     1      44.201   4.729  11.342  0.00  0.00    +0.000 C 
ATOM     14  C   UNL     1      42.939   4.706  12.211  0.00  0.00    +0.000 C 
ATOM     15  C   UNL     1      43.029   5.652  11.067  0.00  0.00    +0.000 C 
BRANCH  13  16
ATOM     16  O   UNL     1      44.337   3.473  10.640  0.00  0.00    +0.000 OA
BRANCH  16  22
ATOM     17 CL   UNL     1      46.676   0.144   7.704  0.00  0.00    +0.000 Cl
ATOM     18  C   UNL     1      46.206   1.761   8.054  0.00  0.00    +0.000 A 
ATOM     19  C   UNL     1      46.511   2.779   7.155  0.00  0.00    +0.000 A 
ATOM     20  C   UNL     1      46.128   4.088   7.445  0.00  0.00    +0.000 A 
ATOM     21  C   UNL     1      45.438   4.378   8.630  0.00  0.00    +0.000 A 
ATOM     22  C   UNL     1      45.113   3.354   9.520  0.00  0.00    +0.000 A 
ATOM     23  C   UNL     1      45.504   2.043   9.224  0.00  0.00    +0.000 A 
ENDBRANCH  16  22
ENDBRANCH  13  16
ENDBRANCH   1  13
TORSDOF 4
ENDMDL
MODEL 3
REMARK VINA RESULT:    -7.057      1.341      2.214
REMARK INTER + INTRA:          -9.793
REMARK INTER:                  -9.581
REMARK INTRA:                  -0.212
REMARK UNBOUND:                -1.085
REMARK  Name = 
REMARK  4 active torsions:
REMARK  status: ('A' for Active; 'I' for Inactive)
REMARK    1  A    between atoms: C_6  and  O_7
REMARK    2  A    between atoms: O_7  and  C_8
REMARK    3  A    between atoms: C_8  and  C_9
REMARK    4  A    between atoms: C_13  and  C_14
REMARK                            x       y       z     vdW  Elec       q    Type
REMARK                         _______ _______ _______ _____ _____    ______ ____
ROOT
ATOM      1  C   UNL     1      44.459   5.375  11.349  0.00  0.00    +0.000 A 
ATOM      2  C   UNL     1      43.491   6.373  11.170  0.00  0.00    +0.000 A 
ATOM      3  C   UNL     1      43.803   7.722  11.336  0.00  0.00    +0.000 A 
ATOM      4  C   UNL     1      45.095   8.106  11.698  0.00  0.00    +0.000 A 
ATOM      5  C   UNL     1      46.108   7.153  11.887  0.00  0.00    +0.000 A 
ATOM      6  C   UNL     1      45.766   5.803  11.673  0.00  0.00    +0.000 A 
ENDROOT
BRANCH   5   7
ATOM      7  C   UNL     1      47.460   7.534  12.347  0.00  0.00    +0.000 A 
ATOM      8  C   UNL     1      48.055   8.759  12.009  0.00  0.00    +0.000 A 
ATOM      9  C   UNL     1      49.354   9.060  12.421  0.00  0.00    +0.000 A 
ATOM     10  C   UNL     1      50.036   8.126  13.180  0.00  0.00    +0.000 A 
ATOM     11  N   UNL     1      49.515   6.938  13.540  0.00  0.00    +0.000 NA
ATOM     12  C   UNL     1      48.254   6.673  13.113  0.00  0.00    +0.000 A 
ENDBRANCH   5   7
BRANCH   1  13
ATOM     13  C   UNL     1      44.107   3.895  11.261  0.00  0.00    +0.000 C 
ATOM     14  C   UNL     1      44.912   2.922  12.128  0.00  0.00    +0.000 C 
ATOM     15  C   UNL     1      43.497   3.222  12.476  0.00  0.00    +0.000 C 
BRANCH  13  16
ATOM     16  O   UNL     1      43.928   3.342   9.938  0.00  0.00    +0.000 OA
BRANCH  16  22
ATOM     17 CL   UNL     1      46.790  -0.084   7.645  0.00  0.00    +0.000 Cl
ATOM     18  C   UNL     1      46.338   1.555   7.909  0.00  0.00    +0.000 A 
ATOM     19  C   UNL     1      46.940   2.565   7.167  0.00  0.00    +0.000 A 
ATOM     20  C   UNL     1      46.570   3.892   7.386  0.00  0.00    +0.000 A 
ATOM     21  C   UNL     1      45.596   4.207   8.344  0.00  0.00    +0.000 A 
ATOM     22  C   UNL     1      44.976   3.191   9.072  0.00  0.00    +0.000 A 
ATOM     23  C   UNL     1      45.356   1.862   8.849  0.00  0.00    +0.000 A 
ENDBRANCH  16  22
ENDBRANCH  13  16
ENDBRANCH   1  13
TORSDOF 4
ENDMDL
MODEL 4
REMARK VINA RESULT:    -6.869      3.898      6.963
REMARK INTER + INTRA:          -9.560
REMARK INTER:                  -8.614
REMARK INTRA:                  -0.946
REMARK UNBOUND:                -1.085
REMARK  Name = 
REMARK  4 active torsions:
REMARK  status: ('A' for Active; 'I' for Inactive)
REMARK    1  A    between atoms: C_6  and  O_7
REMARK    2  A    between atoms: O_7  and  C_8
REMARK    3  A    between atoms: C_8  and  C_9
REMARK    4  A    between atoms: C_13  and  C_14
REMARK                            x       y       z     vdW  Elec       q    Type
REMARK                         _______ _______ _______ _____ _____    ______ ____
ROOT
ATOM      1  C   UNL     1      45.170   6.149  11.517  0.00  0.00    +0.000 A 
ATOM      2  C   UNL     1      43.792   6.030  11.741  0.00  0.00    +0.000 A 
ATOM      3  C   UNL     1      43.031   5.070  11.074  0.00  0.00    +0.000 A 
ATOM      4  C   UNL     1      43.633   4.210  10.154  0.00  0.00    +0.000 A 
ATOM      5  C   UNL     1      45.009   4.279   9.891  0.00  0.00    +0.000 A 
ATOM      6  C   UNL     1      45.753   5.234  10.612  0.00  0.00    +0.000 A 
ENDROOT
BRANCH   5   7
ATOM      7  C   UNL     1      45.650   3.430   8.864  0.00  0.00    +0.000 A 
ATOM      8  C   UNL     1      46.221   3.959   7.697  0.00  0.00    +0.000 A 
ATOM      9  C   UNL     1      46.772   3.119   6.727  0.00  0.00    +0.000 A 
ATOM     10  C   UNL     1      46.750   1.754   6.951  0.00  0.00    +0.000 A 
ATOM     11  N   UNL     1      46.222   1.191   8.053  0.00  0.00    +0.000 NA
ATOM     12  C   UNL     1      45.685   2.036   8.970  0.00  0.00    +0.000 A 
ENDBRANCH   5   7
BRANCH   1  13
ATOM     13  C   UNL     1      45.994   7.253  12.171  0.00  0.00    +0.000 C 
ATOM     14  C   UNL     1      46.981   6.846  13.269  0.00  0.00    +0.000 C 
ATOM     15  C   UNL     1      47.493   7.272  11.938  0.00  0.00    +0.000 C 
BRANCH  13  16
ATOM     16  O   UNL     1      45.288   8.451  12.563  0.00  0.00    +0.000 OA
BRANCH  16  22
ATOM     17 CL   UNL     1      42.484  10.841   9.157  0.00  0.00    +0.000 Cl
ATOM     18  C   UNL     1      43.884  10.761  10.154  0.00  0.00    +0.000 A 
ATOM     19  C   UNL     1      44.773  11.831  10.183  0.00  0.00    +0.000 A 
ATOM     20  C   UNL     1      45.907  11.759  10.993  0.00  0.00    +0.000 A 
ATOM     21  C   UNL     1      46.148  10.621  11.774  0.00  0.00    +0.000 A 
ATOM     22  C   UNL     1      45.244   9.558  11.761  0.00  0.00    +0.000 A 
ATOM     23  C   UNL     1      44.111   9.635  10.944  0.00  0.00    +0.000 A 
ENDBRANCH  16  22
ENDBRANCH  13  16
ENDBRANCH   1  13
TORSDOF 4
ENDMDL
MODEL 5
REMARK VINA RESULT:    -6.849      3.756      6.859
REMARK INTER + INTRA:          -9.535
REMARK INTER:                  -8.555
REMARK INTRA:                  -0.981
REMARK UNBOUND:                -1.085
REMARK  Name = 
REMARK  4 active torsions:
REMARK  status: ('A' for Active; 'I' for Inactive)
REMARK    1  A    between atoms: C_6  and  O_7
REMARK    2  A    between atoms: O_7  and  C_8
REMARK    3  A    between atoms: C_8  and  C_9
REMARK    4  A    between atoms: C_13  and  C_14
REMARK                            x       y       z     vdW  Elec       q    Type
REMARK                         _______ _______ _______ _____ _____    ______ ____
ROOT
ATOM      1  C   UNL     1      45.317   6.370  11.713  0.00  0.00    +0.000 A 
ATOM      2  C   UNL     1      43.927   6.420  11.884  0.00  0.00    +0.000 A 
ATOM      3  C   UNL     1      43.080   5.575  11.168  0.00  0.00    +0.000 A 
ATOM      4  C   UNL     1      43.606   4.663  10.252  0.00  0.00    +0.000 A 
ATOM      5  C   UNL     1      44.990   4.564  10.041  0.00  0.00    +0.000 A 
ATOM      6  C   UNL     1      45.817   5.406  10.810  0.00  0.00    +0.000 A 
ENDROOT
BRANCH   5   7
ATOM      7  C   UNL     1      45.560   3.660   9.019  0.00  0.00    +0.000 A 
ATOM      8  C   UNL     1      46.164   4.134   7.845  0.00  0.00    +0.000 A 
ATOM      9  C   UNL     1      46.646   3.246   6.882  0.00  0.00    +0.000 A 
ATOM     10  C   UNL     1      46.522   1.889   7.118  0.00  0.00    +0.000 A 
ATOM     11  N   UNL     1      45.957   1.377   8.227  0.00  0.00    +0.000 NA
ATOM     12  C   UNL     1      45.490   2.268   9.138  0.00  0.00    +0.000 A 
ENDBRANCH   5   7
BRANCH   1  13
ATOM     13  C   UNL     1      46.245   7.351  12.421  0.00  0.00    +0.000 C 
ATOM     14  C   UNL     1      46.387   8.752  11.821  0.00  0.00    +0.000 C 
ATOM     15  C   UNL     1      45.636   8.568  13.092  0.00  0.00    +0.000 C 
BRANCH  13  16
ATOM     16  O   UNL     1      47.542   6.853  12.821  0.00  0.00    +0.000 OA
BRANCH  16  22
ATOM     17 CL   UNL     1      49.719   6.905  17.342  0.00  0.00    +0.000 Cl
ATOM     18  C   UNL     1      48.708   6.144  16.175  0.00  0.00    +0.000 A 
ATOM     19  C   UNL     1      48.053   4.961  16.497  0.00  0.00    +0.000 A 
ATOM     20  C   UNL     1      47.235   4.349  15.546  0.00  0.00    +0.000 A 
ATOM     21  C   UNL     1      47.072   4.923  14.278  0.00  0.00    +0.000 A 
ATOM     22  C   UNL     1      47.712   6.122  13.964  0.00  0.00    +0.000 A 
ATOM     23  C   UNL     1      48.534   6.728  14.921  0.00  0.00    +0.000 A 
ENDBRANCH  16  22
ENDBRANCH  13  16
ENDBRANCH   1  13
TORSDOF 4
ENDMDL
MODEL 6
REMARK VINA RESULT:    -6.522      3.770      7.228
REMARK INTER + INTRA:          -9.132
REMARK INTER:                  -8.111
REMARK INTRA:                  -1.021
REMARK UNBOUND:                -1.085
REMARK  Name = 
REMARK  4 active torsions:
REMARK  status: ('A' for Active; 'I' for Inactive)
REMARK    1  A    between atoms: C_6  and  O_7
REMARK    2  A    between atoms: O_7  and  C_8
REMARK    3  A    between atoms: C_8  and  C_9
REMARK    4  A    between atoms: C_13  and  C_14
REMARK                            x       y       z     vdW  Elec       q    Type
REMARK                         _______ _______ _______ _____ _____    ______ ____
ROOT
ATOM      1  C   UNL     1      47.307   7.434  12.910  0.00  0.00    +0.000 A 
ATOM      2  C   UNL     1      46.397   8.494  13.024  0.00  0.00    +0.000 A 
ATOM      3  C   UNL     1      45.155   8.452  12.391  0.00  0.00    +0.000 A 
ATOM      4  C   UNL     1      44.797   7.347  11.617  0.00  0.00    +0.000 A 
ATOM      5  C   UNL     1      45.665   6.255  11.469  0.00  0.00    +0.000 A 
ATOM      6  C   UNL     1      46.894   6.315  12.154  0.00  0.00    +0.000 A 
ENDROOT
BRANCH   5   7
ATOM      7  C   UNL     1      45.336   5.112  10.590  0.00  0.00    +0.000 A 
ATOM      8  C   UNL     1      45.710   5.066   9.239  0.00  0.00    +0.000 A 
ATOM      9  C   UNL     1      45.337   3.992   8.430  0.00  0.00    +0.000 A 
ATOM     10  C   UNL     1      44.598   2.969   8.996  0.00  0.00    +0.000 A 
ATOM     11  N   UNL     1      44.215   2.955  10.287  0.00  0.00    +0.000 NA
ATOM     12  C   UNL     1      44.586   4.020  11.041  0.00  0.00    +0.000 A 
ENDBRANCH   5   7
BRANCH   1  13
ATOM     13  C   UNL     1      48.702   7.509  13.520  0.00  0.00    +0.000 C 
ATOM     14  C   UNL     1      49.853   7.944  12.607  0.00  0.00    +0.000 C 
ATOM     15  C   UNL     1      49.358   8.870  13.661  0.00  0.00    +0.000 C 
BRANCH  13  16
ATOM     16  O   UNL     1      49.119   6.395  14.341  0.00  0.00    +0.000 OA
BRANCH  16  22
ATOM     17 CL   UNL     1      47.001   3.078  17.453  0.00  0.00    +0.000 Cl
ATOM     18  C   UNL     1      47.687   4.629  17.158  0.00  0.00    +0.000 A 
ATOM     19  C   UNL     1      47.847   5.524  18.211  0.00  0.00    +0.000 A 
ATOM     20  C   UNL     1      48.404   6.780  17.965  0.00  0.00    +0.000 A 
ATOM     21  C   UNL     1      48.801   7.137  16.669  0.00  0.00    +0.000 A 
ATOM     22  C   UNL     1      48.660   6.230  15.618  0.00  0.00    +0.000 A 
ATOM     23  C   UNL     1      48.098   4.973  15.872  0.00  0.00    +0.000 A 
ENDBRANCH  16  22
ENDBRANCH  13  16
ENDBRANCH   1  13
TORSDOF 4
ENDMDL
MODEL 7
REMARK VINA RESULT:    -6.114      3.184      6.367
REMARK INTER + INTRA:          -8.629
REMARK INTER:                  -8.362
REMARK INTRA:                  -0.267
REMARK UNBOUND:                -1.085
REMARK  Name = 
REMARK  4 active torsions:
REMARK  status: ('A' for Active; 'I' for Inactive)
REMARK    1  A    between atoms: C_6  and  O_7
REMARK    2  A    between atoms: O_7  and  C_8
REMARK    3  A    between atoms: C_8  and  C_9
REMARK    4  A    between atoms: C_13  and  C_14
REMARK                            x       y       z     vdW  Elec       q    Type
REMARK                         _______ _______ _______ _____ _____    ______ ____
ROOT
ATOM      1  C   UNL     1      44.515   3.932  11.056  0.00  0.00    +0.000 A 
ATOM      2  C   UNL     1      43.610   2.895  11.321  0.00  0.00    +0.000 A 
ATOM      3  C   UNL     1      43.555   1.759  10.514  0.00  0.00    +0.000 A 
ATOM      4  C   UNL     1      44.402   1.638   9.411  0.00  0.00    +0.000 A 
ATOM      5  C   UNL     1      45.332   2.641   9.098  0.00  0.00    +0.000 A 
ATOM      6  C   UNL     1      45.386   3.756   9.958  0.00  0.00    +0.000 A 
ENDROOT
BRANCH   5   7
ATOM      7  C   UNL     1      46.182   2.567   7.891  0.00  0.00    +0.000 A 
ATOM      8  C   UNL     1      46.223   3.590   6.932  0.00  0.00    +0.000 A 
ATOM      9  C   UNL     1      47.000   3.459   5.781  0.00  0.00    +0.000 A 
ATOM     10  C   UNL     1      47.737   2.301   5.613  0.00  0.00    +0.000 A 
ATOM     11  N   UNL     1      47.742   1.289   6.501  0.00  0.00    +0.000 NA
ATOM     12  C   UNL     1      46.967   1.445   7.604  0.00  0.00    +0.000 A 
ENDBRANCH   5   7
BRANCH   1  13
ATOM     13  C   UNL     1      44.520   5.217  11.875  0.00  0.00    +0.000 C 
ATOM     14  C   UNL     1      43.403   5.405  12.907  0.00  0.00    +0.000 C 
ATOM     15  C   UNL     1      44.791   5.125  13.365  0.00  0.00    +0.000 C 
BRANCH  13  16
ATOM     16  O   UNL     1      44.738   6.452  11.156  0.00  0.00    +0.000 OA
BRANCH  16  22
ATOM     17 CL   UNL     1      49.634   7.283  11.878  0.00  0.00    +0.000 Cl
ATOM     18  C   UNL     1      48.003   7.833  11.891  0.00  0.00    +0.000 A 
ATOM     19  C   UNL     1      47.726   9.163  12.192  0.00  0.00    +0.000 A 
ATOM     20  C   UNL     1      46.402   9.603  12.202  0.00  0.00    +0.000 A 
ATOM     21  C   UNL     1      45.359   8.714  11.909  0.00  0.00    +0.000 A 
ATOM     22  C   UNL     1      45.639   7.387  11.585  0.00  0.00    +0.000 A 
ATOM     23  C   UNL     1      46.970   6.951  11.580  0.00  0.00    +0.000 A 
ENDBRANCH  16  22
ENDBRANCH  13  16
ENDBRANCH   1  13
TORSDOF 4
ENDMDL
MODEL 8
REMARK VINA RESULT:    -6.050      3.603      6.857
REMARK INTER + INTRA:          -8.549
REMARK INTER:                  -7.890
REMARK INTRA:                  -0.659
REMARK UNBOUND:                -1.085
REMARK  Name = 
REMARK  4 active torsions:
REMARK  status: ('A' for Active; 'I' for Inactive)
REMARK    1  A    between atoms: C_6  and  O_7
REMARK    2  A    between atoms: O_7  and  C_8
REMARK    3  A    between atoms: C_8  and  C_9
REMARK    4  A    between atoms: C_13  and  C_14
REMARK                            x       y       z     vdW  Elec       q    Type
REMARK                         _______ _______ _______ _____ _____    ______ ____
ROOT
ATOM      1  C   UNL     1      45.298   5.621  11.852  0.00  0.00    +0.000 A 
ATOM      2  C   UNL     1      43.910   5.813  11.834  0.00  0.00    +0.000 A 
ATOM      3  C   UNL     1      43.108   5.210  10.866  0.00  0.00    +0.000 A 
ATOM      4  C   UNL     1      43.682   4.404   9.880  0.00  0.00    +0.000 A 
ATOM      5  C   UNL     1      45.065   4.172   9.848  0.00  0.00    +0.000 A 
ATOM      6  C   UNL     1      45.839   4.767  10.865  0.00  0.00    +0.000 A 
ENDROOT
BRANCH   5   7
ATOM      7  C   UNL     1      45.699   3.388   8.767  0.00  0.00    +0.000 A 
ATOM      8  C   UNL     1      46.198   3.980   7.598  0.00  0.00    +0.000 A 
ATOM      9  C   UNL     1      46.745   3.198   6.579  0.00  0.00    +0.000 A 
ATOM     10  C   UNL     1      46.792   1.827   6.755  0.00  0.00    +0.000 A 
ATOM     11  N   UNL     1      46.334   1.204   7.857  0.00  0.00    +0.000 NA
ATOM     12  C   UNL     1      45.800   1.993   8.823  0.00  0.00    +0.000 A 
ENDBRANCH   5   7
BRANCH   1  13
ATOM     13  C   UNL     1      46.193   6.349  12.848  0.00  0.00    +0.000 C 
ATOM     14  C   UNL     1      46.827   5.520  13.969  0.00  0.00    +0.000 C 
ATOM     15  C   UNL     1      47.676   6.028  12.858  0.00  0.00    +0.000 C 
BRANCH  13  16
ATOM     16  O   UNL     1      45.700   7.600  13.379  0.00  0.00    +0.000 OA
BRANCH  16  22
ATOM     17 CL   UNL     1      49.260  10.670  11.623  0.00  0.00    +0.000 Cl
ATOM     18  C   UNL     1      47.600  10.262  11.824  0.00  0.00    +0.000 A 
ATOM     19  C   UNL     1      46.619  11.049  11.232  0.00  0.00    +0.000 A 
ATOM     20  C   UNL     1      45.275  10.713  11.399  0.00  0.00    +0.000 A 
ATOM     21  C   UNL     1      44.915   9.589  12.156  0.00  0.00    +0.000 A 
ATOM     22  C   UNL     1      45.901   8.787  12.730  0.00  0.00    +0.000 A 
ATOM     23  C   UNL     1      47.247   9.132  12.561  0.00  0.00    +0.000 A 
ENDBRANCH  16  22
ENDBRANCH  13  16
ENDBRANCH   1  13
TORSDOF 4
ENDMDL
MODEL 9
REMARK VINA RESULT:    -5.998      4.541      7.864
REMARK INTER + INTRA:          -8.486
REMARK INTER:                  -7.581
REMARK INTRA:                  -0.904
REMARK UNBOUND:                -1.085
REMARK  Name = 
REMARK  4 active torsions:
REMARK  status: ('A' for Active; 'I' for Inactive)
REMARK    1  A    between atoms: C_6  and  O_7
REMARK    2  A    between atoms: O_7  and  C_8
REMARK    3  A    between atoms: C_8  and  C_9
REMARK    4  A    between atoms: C_13  and  C_14
REMARK                            x       y       z     vdW  Elec       q    Type
REMARK                         _______ _______ _______ _____ _____    ______ ____
ROOT
ATOM      1  C   UNL     1      47.680   7.463  13.781  0.00  0.00    +0.000 A 
ATOM      2  C   UNL     1      47.069   8.707  13.568  0.00  0.00    +0.000 A 
ATOM      3  C   UNL     1      45.845   8.808  12.908  0.00  0.00    +0.000 A 
ATOM      4  C   UNL     1      45.205   7.661  12.433  0.00  0.00    +0.000 A 
ATOM      5  C   UNL     1      45.766   6.389  12.619  0.00  0.00    +0.000 A 
ATOM      6  C   UNL     1      46.984   6.322  13.324  0.00  0.00    +0.000 A 
ENDROOT
BRANCH   5   7
ATOM      7  C   UNL     1      45.143   5.172  12.055  0.00  0.00    +0.000 A 
ATOM      8  C   UNL     1      45.023   4.957  10.674  0.00  0.00    +0.000 A 
ATOM      9  C   UNL     1      44.384   3.818  10.182  0.00  0.00    +0.000 A 
ATOM     10  C   UNL     1      43.881   2.902  11.089  0.00  0.00    +0.000 A 
ATOM     11  N   UNL     1      43.972   3.053  12.424  0.00  0.00    +0.000 NA
ATOM     12  C   UNL     1      44.590   4.176  12.868  0.00  0.00    +0.000 A 
ENDBRANCH   5   7
BRANCH   1  13
ATOM     13  C   UNL     1      49.060   7.350  14.418  0.00  0.00    +0.000 C 
ATOM     14  C   UNL     1      50.272   7.716  13.555  0.00  0.00    +0.000 C 
ATOM     15  C   UNL     1      49.853   8.621  14.659  0.00  0.00    +0.000 C 
BRANCH  13  16
ATOM     16  O   UNL     1      49.338   6.148  15.170  0.00  0.00    +0.000 OA
BRANCH  16  22
ATOM     17 CL   UNL     1      48.170   8.034  19.671  0.00  0.00    +0.000 Cl
ATOM     18  C   UNL     1      48.067   6.775  18.503  0.00  0.00    +0.000 A 
ATOM     19  C   UNL     1      47.266   5.665  18.752  0.00  0.00    +0.000 A 
ATOM     20  C   UNL     1      47.188   4.647  17.801  0.00  0.00    +0.000 A 
ATOM     21  C   UNL     1      47.907   4.742  16.602  0.00  0.00    +0.000 A 
ATOM     22  C   UNL     1      48.691   5.866  16.342  0.00  0.00    +0.000 A 
ATOM     23  C   UNL     1      48.768   6.882  17.303  0.00  0.00    +0.000 A 
ENDBRANCH  16  22
ENDBRANCH  13  16
ENDBRANCH   1  13
TORSDOF 4
ENDMDL
