MODEL 1
REMARK VINA RESULT:    -8.622      0.000      0.000
REMARK INTER + INTRA:         -12.850
REMARK INTER:                 -11.646
REMARK INTRA:                  -1.203
REMARK UNBOUND:                -1.203
REMARK  Name = 
REMARK  6 active torsions:
REMARK  status: ('A' for Active; 'I' for Inactive)
REMARK    1  A    between atoms: C_2  and  C_4
REMARK    2  A    between atoms: C_7  and  O_8
REMARK    3  A    between atoms: O_8  and  C_9
REMARK    4  A    between atoms: C_9  and  C_10
REMARK    5  A    between atoms: C_10  and  C_11
REMARK    6  A    between atoms: C_15  and  C_16
REMARK                            x       y       z     vdW  Elec       q    Type
REMARK                         _______ _______ _______ _____ _____    ______ ____
ROOT
ATOM      1  C   UNL     1      43.203   4.015  11.367  0.00  0.00    +0.000 C 
ENDROOT
BRANCH   1   2
ATOM      2  O   UNL     1      43.660   4.580  10.138  0.00  0.00    +0.000 OA
BRANCH   2   6
ATOM      3  C   UNL     1      46.391   2.463   7.799  0.00  0.00    +0.000 A 
ATOM      4  C   UNL     1      45.546   1.745   8.648  0.00  0.00    +0.000 A 
ATOM      5  C   UNL     1      44.619   2.419   9.452  0.00  0.00    +0.000 A 
ATOM      6  C   UNL     1      44.533   3.812   9.413  0.00  0.00    +0.000 A 
ATOM      7  C   UNL     1      45.397   4.528   8.579  0.00  0.00    +0.000 A 
ATOM      8  C   UNL     1      46.330   3.858   7.779  0.00  0.00    +0.000 A 
BRANCH   3  10
ATOM      9  N   UNL     1      48.419   2.532   6.458  0.00  0.00    +0.000 N 
ATOM     10  C   UNL     1      47.374   1.779   6.921  0.00  0.00    +0.000 C 
ATOM     11  O   UNL     1      47.285   0.591   6.653  0.00  0.00    +0.000 OA
ATOM     12  H   UNL     1      49.143   2.028   5.960  0.00  0.00    +0.000 HD
ATOM     13  H   UNL     1      48.663   3.424   6.862  0.00  0.00    +0.000 HD
ENDBRANCH   3  10
ENDBRANCH   2   6
ENDBRANCH   1   2
BRANCH   1  14
ATOM     14  C   UNL     1      43.287   5.065  12.475  0.00  0.00    +0.000 C 
BRANCH  14  15
ATOM     15  C   UNL     1      44.728   5.327  12.830  0.00  0.00    +0.000 A 
ATOM     16  C   UNL     1      45.542   4.309  13.330  0.00  0.00    +0.000 A 
ATOM     17  C   UNL     1      46.894   4.548  13.557  0.00  0.00    +0.000 A 
ATOM     18  C   UNL     1      47.448   5.797  13.257  0.00  0.00    +0.000 A 
ATOM     19  C   UNL     1      46.671   6.831  12.707  0.00  0.00    +0.000 A 
ATOM     20  C   UNL     1      45.297   6.579  12.537  0.00  0.00    +0.000 A 
BRANCH  19  21
ATOM     21  C   UNL     1      47.276   8.088  12.206  0.00  0.00    +0.000 A 
ATOM     22  C   UNL     1      46.533   9.285  12.184  0.00  0.00    +0.000 A 
ATOM     23  C   UNL     1      47.121  10.506  11.848  0.00  0.00    +0.000 A 
ATOM     24  C   UNL     1      48.472  10.563  11.524  0.00  0.00    +0.000 A 
ATOM     25  C   UNL     1      49.226   9.394  11.509  0.00  0.00    +0.000 A 
ATOM     26  C   UNL     1      48.631   8.170  11.833  0.00  0.00    +0.000 A 
ENDBRANCH  19  21
ENDBRANCH  14  15
ENDBRANCH   1  14
TORSDOF 6
ENDMDL
MODEL 2
REMARK VINA RESULT:    -8.424      1.935      3.850
REMARK INTER + INTRA:         -12.582
REMARK INTER:                 -11.459
REMARK INTRA:                  -1.123
REMARK UNBOUND:                -1.203
REMARK  Name = 
REMARK  6 active torsions:
REMARK  status: ('A' for Active; 'I' for Inactive)
REMARK    1  A    between atoms: C_2  and  C_4
REMARK    2  A    between atoms: C_7  and  O_8
REMARK    3  A    between atoms: O_8  and  C_9
REMARK    4  A    between atoms: C_9  and  C_10
REMARK    5  A    between atoms: C_10  and  C_11
REMARK    6  A    between atoms: C_15  and  C_16
REMARK                            x       y       z     vdW  Elec       q    Type
REMARK                         _______ _______ _______ _____ _____    ______ ____
ROOT
ATOM      1  C   UNL     1      43.348   4.660  10.857  0.00  0.00    +0.000 C 
ENDROOT
BRANCH   1   2
ATOM      2  O   UNL     1      43.587   3.326  10.407  0.00  0.00    +0.000 OA
BRANCH   2   6
ATOM      3  C   UNL     1      46.501   2.643   7.500  0.00  0.00    +0.000 A 
ATOM      4  C   UNL     1      46.035   3.947   7.679  0.00  0.00    +0.000 A 
ATOM      5  C   UNL     1      45.055   4.216   8.642  0.00  0.00    +0.000 A 
ATOM      6  C   UNL     1      44.534   3.185   9.427  0.00  0.00    +0.000 A 
ATOM      7  C   UNL     1      44.987   1.878   9.227  0.00  0.00    +0.000 A 
ATOM      8  C   UNL     1      45.962   1.604   8.261  0.00  0.00    +0.000 A 
BRANCH   3  10
ATOM      9  N   UNL     1      47.472   2.965   5.293  0.00  0.00    +0.000 N 
ATOM     10  C   UNL     1      47.553   2.325   6.500  0.00  0.00    +0.000 C 
ATOM     11  O   UNL     1      48.473   1.562   6.750  0.00  0.00    +0.000 OA
ATOM     12  H   UNL     1      48.256   2.831   4.666  0.00  0.00    +0.000 HD
ATOM     13  H   UNL     1      46.892   3.779   5.150  0.00  0.00    +0.000 HD
ENDBRANCH   3  10
ENDBRANCH   2   6
ENDBRANCH   1   2
BRANCH   1  14
ATOM     14  C   UNL     1      43.634   4.753  12.356  0.00  0.00    +0.000 C 
BRANCH  14  15
ATOM     15  C   UNL     1      45.064   5.169  12.584  0.00  0.00    +0.000 A 
ATOM     16  C   UNL     1      45.692   6.080  11.733  0.00  0.00    +0.000 A 
ATOM     17  C   UNL     1      46.979   6.526  12.019  0.00  0.00    +0.000 A 
ATOM     18  C   UNL     1      47.635   6.089  13.173  0.00  0.00    +0.000 A 
ATOM     19  C   UNL     1      47.017   5.211  14.080  0.00  0.00    +0.000 A 
ATOM     20  C   UNL     1      45.738   4.735  13.739  0.00  0.00    +0.000 A 
BRANCH  19  21
ATOM     21  C   UNL     1      47.617   4.890  15.397  0.00  0.00    +0.000 A 
ATOM     22  C   UNL     1      47.366   3.651  16.019  0.00  0.00    +0.000 A 
ATOM     23  C   UNL     1      48.026   3.271  17.190  0.00  0.00    +0.000 A 
ATOM     24  C   UNL     1      48.959   4.123  17.771  0.00  0.00    +0.000 A 
ATOM     25  C   UNL     1      49.207   5.366  17.196  0.00  0.00    +0.000 A 
ATOM     26  C   UNL     1      48.534   5.749  16.032  0.00  0.00    +0.000 A 
ENDBRANCH  19  21
ENDBRANCH  14  15
ENDBRANCH   1  14
TORSDOF 6
ENDMDL
MODEL 3
REMARK VINA RESULT:    -8.376      1.307      2.049
REMARK INTER + INTRA:         -12.518
REMARK INTER:                 -11.285
REMARK INTRA:                  -1.233
REMARK UNBOUND:                -1.203
REMARK  Name = 
REMARK  6 active torsions:
REMARK  status: ('A' for Active; 'I' for Inactive)
REMARK    1  A    between atoms: C_2  and  C_4
REMARK    2  A    between atoms: C_7  and  O_8
REMARK    3  A    between atoms: O_8  and  C_9
REMARK    4  A    between atoms: C_9  and  C_10
REMARK    5  A    between atoms: C_10  and  C_11
REMARK    6  A    between atoms: C_15  and  C_16
REMARK                            x       y       z     vdW  Elec       q    Type
REMARK                         _______ _______ _______ _____ _____    ______ ____
ROOT
ATOM      1  C   UNL     1      43.701   3.016  11.791  0.00  0.00    +0.000 C 
ENDROOT
BRANCH   1   2
ATOM      2  O   UNL     1      43.425   3.565  10.502  0.00  0.00    +0.000 OA
BRANCH   2   6
ATOM      3  C   UNL     1      46.375   2.714   7.676  0.00  0.00    +0.000 A 
ATOM      4  C   UNL     1      45.993   4.045   7.858  0.00  0.00    +0.000 A 
ATOM      5  C   UNL     1      45.004   4.371   8.793  0.00  0.00    +0.000 A 
ATOM      6  C   UNL     1      44.390   3.370   9.549  0.00  0.00    +0.000 A 
ATOM      7  C   UNL     1      44.759   2.036   9.347  0.00  0.00    +0.000 A 
ATOM      8  C   UNL     1      45.743   1.706   8.408  0.00  0.00    +0.000 A 
BRANCH   3  10
ATOM      9  N   UNL     1      47.505   3.069   5.552  0.00  0.00    +0.000 N 
ATOM     10  C   UNL     1      47.433   2.335   6.705  0.00  0.00    +0.000 C 
ATOM     11  O   UNL     1      48.231   1.440   6.934  0.00  0.00    +0.000 OA
ATOM     12  H   UNL     1      48.300   2.880   4.954  0.00  0.00    +0.000 HD
ATOM     13  H   UNL     1      47.045   3.962   5.449  0.00  0.00    +0.000 HD
ENDBRANCH   3  10
ENDBRANCH   2   6
ENDBRANCH   1   2
BRANCH   1  14
ATOM     14  C   UNL     1      43.476   4.086  12.861  0.00  0.00    +0.000 C 
BRANCH  14  15
ATOM     15  C   UNL     1      44.635   5.049  12.879  0.00  0.00    +0.000 A 
ATOM     16  C   UNL     1      45.939   4.601  13.097  0.00  0.00    +0.000 A 
ATOM     17  C   UNL     1      47.004   5.493  13.012  0.00  0.00    +0.000 A 
ATOM     18  C   UNL     1      46.777   6.831  12.677  0.00  0.00    +0.000 A 
ATOM     19  C   UNL     1      45.484   7.308  12.402  0.00  0.00    +0.000 A 
ATOM     20  C   UNL     1      44.421   6.398  12.547  0.00  0.00    +0.000 A 
BRANCH  19  21
ATOM     21  C   UNL     1      45.246   8.668  11.861  0.00  0.00    +0.000 A 
ATOM     22  C   UNL     1      44.081   8.955  11.122  0.00  0.00    +0.000 A 
ATOM     23  C   UNL     1      43.769  10.256  10.722  0.00  0.00    +0.000 A 
ATOM     24  C   UNL     1      44.617  11.308  11.050  0.00  0.00    +0.000 A 
ATOM     25  C   UNL     1      45.790  11.052  11.753  0.00  0.00    +0.000 A 
ATOM     26  C   UNL     1      46.106   9.746  12.142  0.00  0.00    +0.000 A 
ENDBRANCH  19  21
ENDBRANCH  14  15
ENDBRANCH   1  14
TORSDOF 6
ENDMDL
MODEL 4
REMARK VINA RESULT:    -7.759      3.657      7.250
REMARK INTER + INTRA:         -11.684
REMARK INTER:                 -10.540
REMARK INTRA:                  -1.144
REMARK UNBOUND:                -1.203
REMARK  Name = 
REMARK  6 active torsions:
REMARK  status: ('A' for Active; 'I' for Inactive)
REMARK    1  A    between atoms: C_2  and  C_4
REMARK    2  A    between atoms: C_7  and  O_8
REMARK    3  A    between atoms: O_8  and  C_9
REMARK    4  A    between atoms: C_9  and  C_10
REMARK    5  A    between atoms: C_10  and  C_11
REMARK    6  A    between atoms: C_15  and  C_16
REMARK                            x       y       z     vdW  Elec       q    Type
REMARK                         _______ _______ _______ _____ _____    ______ ____
ROOT
ATOM      1  C   UNL     1      45.157   6.986  12.517  0.00  0.00    +0.000 C 
ENDROOT
BRANCH   1   2
ATOM      2  O   UNL     1      46.492   6.492  12.410  0.00  0.00    +0.000 OA
BRANCH   2   6
ATOM      3  C   UNL     1      47.929   4.659  15.872  0.00  0.00    +0.000 A 
ATOM      4  C   UNL     1      48.451   5.904  15.514  0.00  0.00    +0.000 A 
ATOM      5  C   UNL     1      47.997   6.550  14.358  0.00  0.00    +0.000 A 
ATOM      6  C   UNL     1      47.024   5.954  13.553  0.00  0.00    +0.000 A 
ATOM      7  C   UNL     1      46.522   4.697  13.902  0.00  0.00    +0.000 A 
ATOM      8  C   UNL     1      46.978   4.045  15.054  0.00  0.00    +0.000 A 
BRANCH   3  10
ATOM      9  N   UNL     1      47.516   3.966  18.167  0.00  0.00    +0.000 N 
ATOM     10  C   UNL     1      48.376   3.955  17.101  0.00  0.00    +0.000 C 
ATOM     11  O   UNL     1      49.438   3.355  17.153  0.00  0.00    +0.000 OA
ATOM     12  H   UNL     1      47.778   3.386  18.955  0.00  0.00    +0.000 HD
ATOM     13  H   UNL     1      46.544   4.219  18.075  0.00  0.00    +0.000 HD
ENDBRANCH   3  10
ENDBRANCH   2   6
ENDBRANCH   1   2
BRANCH   1  14
ATOM     14  C   UNL     1      44.394   6.679  11.228  0.00  0.00    +0.000 C 
BRANCH  14  15
ATOM     15  C   UNL     1      44.358   5.191  10.990  0.00  0.00    +0.000 A 
ATOM     16  C   UNL     1      43.471   4.373  11.692  0.00  0.00    +0.000 A 
ATOM     17  C   UNL     1      43.386   3.017  11.387  0.00  0.00    +0.000 A 
ATOM     18  C   UNL     1      44.162   2.478  10.357  0.00  0.00    +0.000 A 
ATOM     19  C   UNL     1      45.030   3.280   9.595  0.00  0.00    +0.000 A 
ATOM     20  C   UNL     1      45.136   4.634   9.960  0.00  0.00    +0.000 A 
BRANCH  19  21
ATOM     21  C   UNL     1      45.712   2.768   8.382  0.00  0.00    +0.000 A 
ATOM     22  C   UNL     1      45.985   3.622   7.296  0.00  0.00    +0.000 A 
ATOM     23  C   UNL     1      46.746   3.200   6.204  0.00  0.00    +0.000 A 
ATOM     24  C   UNL     1      47.256   1.906   6.170  0.00  0.00    +0.000 A 
ATOM     25  C   UNL     1      46.979   1.030   7.214  0.00  0.00    +0.000 A 
ATOM     26  C   UNL     1      46.206   1.452   8.300  0.00  0.00    +0.000 A 
ENDBRANCH  19  21
ENDBRANCH  14  15
ENDBRANCH   1  14
TORSDOF 6
ENDMDL
MODEL 5
REMARK VINA RESULT:    -7.638      1.387      2.467
REMARK INTER + INTRA:         -11.521
REMARK INTER:                 -10.513
REMARK INTRA:                  -1.008
REMARK UNBOUND:                -1.203
REMARK  Name = 
REMARK  6 active torsions:
REMARK  status: ('A' for Active; 'I' for Inactive)
REMARK    1  A    between atoms: C_2  and  C_4
REMARK    2  A    between atoms: C_7  and  O_8
REMARK    3  A    between atoms: O_8  and  C_9
REMARK    4  A    between atoms: C_9  and  C_10
REMARK    5  A    between atoms: C_10  and  C_11
REMARK    6  A    between atoms: C_15  and  C_16
REMARK                            x       y       z     vdW  Elec       q    Type
REMARK                         _______ _______ _______ _____ _____    ______ ____
ROOT
ATOM      1  C   UNL     1      43.563   4.328  11.039  0.00  0.00    +0.000 C 
ENDROOT
BRANCH   1   2
ATOM      2  O   UNL     1      43.667   3.071  10.370  0.00  0.00    +0.000 OA
BRANCH   2   6
ATOM      3  C   UNL     1      46.525   2.627   7.363  0.00  0.00    +0.000 A 
ATOM      4  C   UNL     1      45.928   3.878   7.532  0.00  0.00    +0.000 A 
ATOM      5  C   UNL     1      44.962   4.067   8.527  0.00  0.00    +0.000 A 
ATOM      6  C   UNL     1      44.586   3.007   9.356  0.00  0.00    +0.000 A 
ATOM      7  C   UNL     1      45.170   1.751   9.167  0.00  0.00    +0.000 A 
ATOM      8  C   UNL     1      46.131   1.557   8.168  0.00  0.00    +0.000 A 
BRANCH   3  10
ATOM      9  N   UNL     1      47.416   3.063   5.142  0.00  0.00    +0.000 N 
ATOM     10  C   UNL     1      47.566   2.397   6.328  0.00  0.00    +0.000 C 
ATOM     11  O   UNL     1      48.535   1.683   6.533  0.00  0.00    +0.000 OA
ATOM     12  H   UNL     1      48.189   2.992   4.492  0.00  0.00    +0.000 HD
ATOM     13  H   UNL     1      46.787   3.846   5.036  0.00  0.00    +0.000 HD
ENDBRANCH   3  10
ENDBRANCH   2   6
ENDBRANCH   1   2
BRANCH   1  14
ATOM     14  C   UNL     1      44.780   4.529  11.944  0.00  0.00    +0.000 C 
BRANCH  14  15
ATOM     15  C   UNL     1      45.293   5.940  11.815  0.00  0.00    +0.000 A 
ATOM     16  C   UNL     1      44.414   7.013  11.658  0.00  0.00    +0.000 A 
ATOM     17  C   UNL     1      44.902   8.316  11.641  0.00  0.00    +0.000 A 
ATOM     18  C   UNL     1      46.269   8.557  11.811  0.00  0.00    +0.000 A 
ATOM     19  C   UNL     1      47.179   7.506  12.020  0.00  0.00    +0.000 A 
ATOM     20  C   UNL     1      46.665   6.197  11.980  0.00  0.00    +0.000 A 
BRANCH  19  21
ATOM     21  C   UNL     1      48.593   7.753  12.393  0.00  0.00    +0.000 A 
ATOM     22  C   UNL     1      49.602   7.771  11.410  0.00  0.00    +0.000 A 
ATOM     23  C   UNL     1      50.915   8.136  11.715  0.00  0.00    +0.000 A 
ATOM     24  C   UNL     1      51.254   8.494  13.016  0.00  0.00    +0.000 A 
ATOM     25  C   UNL     1      50.286   8.457  14.014  0.00  0.00    +0.000 A 
ATOM     26  C   UNL     1      48.975   8.078  13.708  0.00  0.00    +0.000 A 
ENDBRANCH  19  21
ENDBRANCH  14  15
ENDBRANCH   1  14
TORSDOF 6
ENDMDL
MODEL 6
REMARK VINA RESULT:    -7.179      2.067      2.986
REMARK INTER + INTRA:         -10.900
REMARK INTER:                 -10.156
REMARK INTRA:                  -0.744
REMARK UNBOUND:                -1.203
REMARK  Name = 
REMARK  6 active torsions:
REMARK  status: ('A' for Active; 'I' for Inactive)
REMARK    1  A    between atoms: C_2  and  C_4
REMARK    2  A    between atoms: C_7  and  O_8
REMARK    3  A    between atoms: O_8  and  C_9
REMARK    4  A    between atoms: C_9  and  C_10
REMARK    5  A    between atoms: C_10  and  C_11
REMARK    6  A    between atoms: C_15  and  C_16
REMARK                            x       y       z     vdW  Elec       q    Type
REMARK                         _______ _______ _______ _____ _____    ______ ____
ROOT
ATOM      1  C   UNL     1      43.982   5.390  10.924  0.00  0.00    +0.000 C 
ENDROOT
BRANCH   1   2
ATOM      2  O   UNL     1      43.667   4.150  10.292  0.00  0.00    +0.000 OA
BRANCH   2   6
ATOM      3  C   UNL     1      46.460   2.481   7.679  0.00  0.00    +0.000 A 
ATOM      4  C   UNL     1      46.276   3.866   7.660  0.00  0.00    +0.000 A 
ATOM      5  C   UNL     1      45.346   4.463   8.518  0.00  0.00    +0.000 A 
ATOM      6  C   UNL     1      44.593   3.681   9.397  0.00  0.00    +0.000 A 
ATOM      7  C   UNL     1      44.763   2.294   9.396  0.00  0.00    +0.000 A 
ATOM      8  C   UNL     1      45.687   1.692   8.534  0.00  0.00    +0.000 A 
BRANCH   3  10
ATOM      9  N   UNL     1      48.522   2.567   6.393  0.00  0.00    +0.000 N 
ATOM     10  C   UNL     1      47.450   1.816   6.794  0.00  0.00    +0.000 C 
ATOM     11  O   UNL     1      47.343   0.644   6.470  0.00  0.00    +0.000 OA
ATOM     12  H   UNL     1      49.248   2.071   5.890  0.00  0.00    +0.000 HD
ATOM     13  H   UNL     1      48.775   3.434   6.843  0.00  0.00    +0.000 HD
ENDBRANCH   3  10
ENDBRANCH   2   6
ENDBRANCH   1   2
BRANCH   1  14
ATOM     14  C   UNL     1      45.273   5.240  11.730  0.00  0.00    +0.000 C 
BRANCH  14  15
ATOM     15  C   UNL     1      45.795   6.597  12.126  0.00  0.00    +0.000 A 
ATOM     16  C   UNL     1      45.135   7.763  11.736  0.00  0.00    +0.000 A 
ATOM     17  C   UNL     1      45.578   9.000  12.195  0.00  0.00    +0.000 A 
ATOM     18  C   UNL     1      46.665   9.077  13.072  0.00  0.00    +0.000 A 
ATOM     19  C   UNL     1      47.324   7.922  13.527  0.00  0.00    +0.000 A 
ATOM     20  C   UNL     1      46.889   6.690  13.005  0.00  0.00    +0.000 A 
BRANCH  19  21
ATOM     21  C   UNL     1      48.346   7.970  14.599  0.00  0.00    +0.000 A 
ATOM     22  C   UNL     1      48.293   8.961  15.599  0.00  0.00    +0.000 A 
ATOM     23  C   UNL     1      49.161   8.945  16.693  0.00  0.00    +0.000 A 
ATOM     24  C   UNL     1      50.107   7.934  16.817  0.00  0.00    +0.000 A 
ATOM     25  C   UNL     1      50.203   6.957  15.831  0.00  0.00    +0.000 A 
ATOM     26  C   UNL     1      49.342   6.984  14.730  0.00  0.00    +0.000 A 
ENDBRANCH  19  21
ENDBRANCH  14  15
ENDBRANCH   1  14
TORSDOF 6
ENDMDL
MODEL 7
REMARK VINA RESULT:    -7.089      4.779      8.010
REMARK INTER + INTRA:         -10.779
REMARK INTER:                 -10.097
REMARK INTRA:                  -0.682
REMARK UNBOUND:                -1.203
REMARK  Name = 
REMARK  6 active torsions:
REMARK  status: ('A' for Active; 'I' for Inactive)
REMARK    1  A    between atoms: C_2  and  C_4
REMARK    2  A    between atoms: C_7  and  O_8
REMARK    3  A    between atoms: O_8  and  C_9
REMARK    4  A    between atoms: C_9  and  C_10
REMARK    5  A    between atoms: C_10  and  C_11
REMARK    6  A    between atoms: C_15  and  C_16
REMARK                            x       y       z     vdW  Elec       q    Type
REMARK                         _______ _______ _______ _____ _____    ______ ____
ROOT
ATOM      1  C   UNL     1      46.907   4.274  14.196  0.00  0.00    +0.000 C 
ENDROOT
BRANCH   1   2
ATOM      2  O   UNL     1      46.761   3.941  15.577  0.00  0.00    +0.000 OA
BRANCH   2   6
ATOM      3  C   UNL     1      50.340   3.713  17.710  0.00  0.00    +0.000 A 
ATOM      4  C   UNL     1      49.735   2.524  17.299  0.00  0.00    +0.000 A 
ATOM      5  C   UNL     1      48.532   2.558  16.585  0.00  0.00    +0.000 A 
ATOM      6  C   UNL     1      47.926   3.779  16.280  0.00  0.00    +0.000 A 
ATOM      7  C   UNL     1      48.523   4.966  16.714  0.00  0.00    +0.000 A 
ATOM      8  C   UNL     1      49.723   4.936  17.434  0.00  0.00    +0.000 A 
BRANCH   3  10
ATOM      9  N   UNL     1      51.605   4.227  19.723  0.00  0.00    +0.000 N 
ATOM     10  C   UNL     1      51.626   3.714  18.454  0.00  0.00    +0.000 C 
ATOM     11  O   UNL     1      52.647   3.243  17.980  0.00  0.00    +0.000 OA
ATOM     12  H   UNL     1      52.455   4.114  20.262  0.00  0.00    +0.000 HD
ATOM     13  H   UNL     1      50.746   4.378  20.232  0.00  0.00    +0.000 HD
ENDBRANCH   3  10
ENDBRANCH   2   6
ENDBRANCH   1   2
BRANCH   1  14
ATOM     14  C   UNL     1      45.965   5.427  13.846  0.00  0.00    +0.000 C 
BRANCH  14  15
ATOM     15  C   UNL     1      45.009   5.000  12.761  0.00  0.00    +0.000 A 
ATOM     16  C   UNL     1      43.674   5.406  12.780  0.00  0.00    +0.000 A 
ATOM     17  C   UNL     1      42.834   5.083  11.718  0.00  0.00    +0.000 A 
ATOM     18  C   UNL     1      43.331   4.381  10.616  0.00  0.00    +0.000 A 
ATOM     19  C   UNL     1      44.682   3.999  10.538  0.00  0.00    +0.000 A 
ATOM     20  C   UNL     1      45.495   4.291  11.648  0.00  0.00    +0.000 A 
BRANCH  19  21
ATOM     21  C   UNL     1      45.267   3.428   9.301  0.00  0.00    +0.000 A 
ATOM     22  C   UNL     1      45.785   4.268   8.296  0.00  0.00    +0.000 A 
ATOM     23  C   UNL     1      46.464   3.754   7.189  0.00  0.00    +0.000 A 
ATOM     24  C   UNL     1      46.643   2.382   7.058  0.00  0.00    +0.000 A 
ATOM     25  C   UNL     1      46.118   1.524   8.019  0.00  0.00    +0.000 A 
ATOM     26  C   UNL     1      45.427   2.041   9.120  0.00  0.00    +0.000 A 
ENDBRANCH  19  21
ENDBRANCH  14  15
ENDBRANCH   1  14
TORSDOF 6
ENDMDL
MODEL 8
REMARK VINA RESULT:    -6.972      3.121      6.961
REMARK INTER + INTRA:         -10.620
REMARK INTER:                  -9.753
REMARK INTRA:                  -0.867
REMARK UNBOUND:                -1.203
REMARK  Name = 
REMARK  6 active torsions:
REMARK  status: ('A' for Active; 'I' for Inactive)
REMARK    1  A    between atoms: C_2  and  C_4
REMARK    2  A    between atoms: C_7  and  O_8
REMARK    3  A    between atoms: O_8  and  C_9
REMARK    4  A    between atoms: C_9  and  C_10
REMARK    5  A    between atoms: C_10  and  C_11
REMARK    6  A    between atoms: C_15  and  C_16
REMARK                            x       y       z     vdW  Elec       q    Type
REMARK                         _______ _______ _______ _____ _____    ______ ____
ROOT
ATOM      1  C   UNL     1      44.790   6.970  12.576  0.00  0.00    +0.000 C 
ENDROOT
BRANCH   1   2
ATOM      2  O   UNL     1      46.022   6.248  12.587  0.00  0.00    +0.000 OA
BRANCH   2   6
ATOM      3  C   UNL     1      49.330   8.746  12.111  0.00  0.00    +0.000 A 
ATOM      4  C   UNL     1      49.551   7.404  12.428  0.00  0.00    +0.000 A 
ATOM      5  C   UNL     1      48.467   6.535  12.600  0.00  0.00    +0.000 A 
ATOM      6  C   UNL     1      47.159   7.002  12.459  0.00  0.00    +0.000 A 
ATOM      7  C   UNL     1      46.941   8.352  12.165  0.00  0.00    +0.000 A 
ATOM      8  C   UNL     1      48.023   9.225  11.999  0.00  0.00    +0.000 A 
BRANCH   3  10
ATOM      9  N   UNL     1      50.584  10.709  12.812  0.00  0.00    +0.000 N 
ATOM     10  C   UNL     1      50.457   9.692  11.905  0.00  0.00    +0.000 C 
ATOM     11  O   UNL     1      51.261   9.551  10.998  0.00  0.00    +0.000 OA
ATOM     12  H   UNL     1      51.420  11.274  12.731  0.00  0.00    +0.000 HD
ATOM     13  H   UNL     1      50.108  10.703  13.703  0.00  0.00    +0.000 HD
ENDBRANCH   3  10
ENDBRANCH   2   6
ENDBRANCH   1   2
BRANCH   1  14
ATOM     14  C   UNL     1      43.981   6.582  11.338  0.00  0.00    +0.000 C 
BRANCH  14  15
ATOM     15  C   UNL     1      44.083   5.097  11.098  0.00  0.00    +0.000 A 
ATOM     16  C   UNL     1      43.286   4.198  11.808  0.00  0.00    +0.000 A 
ATOM     17  C   UNL     1      43.326   2.841  11.501  0.00  0.00    +0.000 A 
ATOM     18  C   UNL     1      44.139   2.378  10.462  0.00  0.00    +0.000 A 
ATOM     19  C   UNL     1      44.918   3.259   9.692  0.00  0.00    +0.000 A 
ATOM     20  C   UNL     1      44.899   4.617  10.058  0.00  0.00    +0.000 A 
BRANCH  19  21
ATOM     21  C   UNL     1      45.632   2.815   8.471  0.00  0.00    +0.000 A 
ATOM     22  C   UNL     1      45.934   3.729   7.443  0.00  0.00    +0.000 A 
ATOM     23  C   UNL     1      46.724   3.367   6.349  0.00  0.00    +0.000 A 
ATOM     24  C   UNL     1      47.235   2.076   6.256  0.00  0.00    +0.000 A 
ATOM     25  C   UNL     1      46.930   1.143   7.241  0.00  0.00    +0.000 A 
ATOM     26  C   UNL     1      46.127   1.505   8.328  0.00  0.00    +0.000 A 
ENDBRANCH  19  21
ENDBRANCH  14  15
ENDBRANCH   1  14
TORSDOF 6
ENDMDL
MODEL 9
REMARK VINA RESULT:    -6.797      4.000      7.551
REMARK INTER + INTRA:         -10.385
REMARK INTER:                  -9.146
REMARK INTRA:                  -1.239
REMARK UNBOUND:                -1.203
REMARK  Name = 
REMARK  6 active torsions:
REMARK  status: ('A' for Active; 'I' for Inactive)
REMARK    1  A    between atoms: C_2  and  C_4
REMARK    2  A    between atoms: C_7  and  O_8
REMARK    3  A    between atoms: O_8  and  C_9
REMARK    4  A    between atoms: C_9  and  C_10
REMARK    5  A    between atoms: C_10  and  C_11
REMARK    6  A    between atoms: C_15  and  C_16
REMARK                            x       y       z     vdW  Elec       q    Type
REMARK                         _______ _______ _______ _____ _____    ______ ____
ROOT
ATOM      1  C   UNL     1      49.587   7.270  12.954  0.00  0.00    +0.000 C 
ENDROOT
BRANCH   1   2
ATOM      2  O   UNL     1      49.145   7.705  14.240  0.00  0.00    +0.000 OA
BRANCH   2   6
ATOM      3  C   UNL     1      48.029   4.632  16.832  0.00  0.00    +0.000 A 
ATOM      4  C   UNL     1      49.110   5.442  17.188  0.00  0.00    +0.000 A 
ATOM      5  C   UNL     1      49.518   6.480  16.343  0.00  0.00    +0.000 A 
ATOM      6  C   UNL     1      48.851   6.714  15.139  0.00  0.00    +0.000 A 
ATOM      7  C   UNL     1      47.784   5.887  14.776  0.00  0.00    +0.000 A 
ATOM      8  C   UNL     1      47.378   4.842  15.615  0.00  0.00    +0.000 A 
BRANCH   3  10
ATOM      9  N   UNL     1      48.172   3.412  18.931  0.00  0.00    +0.000 N 
ATOM     10  C   UNL     1      47.559   3.532  17.713  0.00  0.00    +0.000 C 
ATOM     11  O   UNL     1      46.643   2.793  17.391  0.00  0.00    +0.000 OA
ATOM     12  H   UNL     1      47.765   2.737  19.568  0.00  0.00    +0.000 HD
ATOM     13  H   UNL     1      48.735   4.148  19.329  0.00  0.00    +0.000 HD
ENDBRANCH   3  10
ENDBRANCH   2   6
ENDBRANCH   1   2
BRANCH   1  14
ATOM     14  C   UNL     1      48.892   8.093  11.868  0.00  0.00    +0.000 C 
BRANCH  14  15
ATOM     15  C   UNL     1      47.420   7.773  11.841  0.00  0.00    +0.000 A 
ATOM     16  C   UNL     1      46.471   8.718  12.234  0.00  0.00    +0.000 A 
ATOM     17  C   UNL     1      45.114   8.436  12.107  0.00  0.00    +0.000 A 
ATOM     18  C   UNL     1      44.696   7.220  11.558  0.00  0.00    +0.000 A 
ATOM     19  C   UNL     1      45.621   6.264  11.105  0.00  0.00    +0.000 A 
ATOM     20  C   UNL     1      46.985   6.552  11.294  0.00  0.00    +0.000 A 
BRANCH  19  21
ATOM     21  C   UNL     1      45.201   5.060  10.348  0.00  0.00    +0.000 A 
ATOM     22  C   UNL     1      45.592   4.882   9.006  0.00  0.00    +0.000 A 
ATOM     23  C   UNL     1      45.326   3.697   8.317  0.00  0.00    +0.000 A 
ATOM     24  C   UNL     1      44.660   2.655   8.954  0.00  0.00    +0.000 A 
ATOM     25  C   UNL     1      44.236   2.812  10.270  0.00  0.00    +0.000 A 
ATOM     26  C   UNL     1      44.492   4.005  10.953  0.00  0.00    +0.000 A 
ENDBRANCH  19  21
ENDBRANCH  14  15
ENDBRANCH   1  14
TORSDOF 6
ENDMDL
