MODEL 1
REMARK VINA RESULT:    -8.611      0.000      0.000
REMARK INTER + INTRA:         -14.387
REMARK INTER:                 -13.394
REMARK INTRA:                  -0.994
REMARK UNBOUND:                -0.994
REMARK  Name = 
REMARK  10 active torsions:
REMARK  status: ('A' for Active; 'I' for Inactive)
REMARK    1  A    between atoms: C_2  and  C_23
REMARK    2  A    between atoms: N_3  and  C_4
REMARK    3  A    between atoms: C_4  and  C_5
REMARK    4  A    between atoms: C_8  and  C_9
REMARK    5  A    between atoms: C_9  and  N_10
REMARK    6  A    between atoms: N_10  and  C_11
REMARK    7  A    between atoms: N_10  and  C_14
REMARK    8  A    between atoms: C_11  and  C_12
REMARK    9  A    between atoms: C_12  and  O_13
REMARK   10  A    between atoms: C_14  and  C_15
REMARK                            x       y       z     vdW  Elec       q    Type
REMARK                         _______ _______ _______ _____ _____    ______ ____
ROOT
ATOM      1  C   UNL     1      48.012   6.499  13.824  0.00  0.00    +0.000 A 
ATOM      2  C   UNL     1      47.117   5.433  13.979  0.00  0.00    +0.000 A 
ATOM      3  C   UNL     1      46.162   5.164  12.999  0.00  0.00    +0.000 A 
ATOM      4  C   UNL     1      46.082   5.960  11.848  0.00  0.00    +0.000 A 
ATOM      5  C   UNL     1      47.049   6.954  11.641  0.00  0.00    +0.000 A 
ATOM      6  C   UNL     1      48.009   7.218  12.620  0.00  0.00    +0.000 A 
ENDROOT
BRANCH   1   7
ATOM      7  C   UNL     1      48.946   6.876  14.941  0.00  0.00    +0.000 C 
BRANCH   7  10
ATOM      8  O   UNL     1      50.793   5.656  16.598  0.00  0.00    +0.000 OA
ATOM      9  C   UNL     1      49.609   5.609  16.916  0.00  0.00    +0.000 C 
ATOM     10  N   UNL     1      48.622   6.193  16.157  0.00  0.00    +0.000 N 
ATOM     11  H   UNL     1      47.664   6.198  16.474  0.00  0.00    +0.000 HD
BRANCH   9  12
ATOM     12  C   UNL     1      49.145   4.927  18.122  0.00  0.00    +0.000 A 
ATOM     13  C   UNL     1      48.839   3.577  18.262  0.00  0.00    +0.000 A 
ATOM     14  N   UNL     1      48.465   3.348  19.561  0.00  0.00    +0.000 N 
ATOM     15  C   UNL     1      48.521   4.510  20.271  0.00  0.00    +0.000 A 
ATOM     16  N   UNL     1      48.221   4.607  21.578  0.00  0.00    +0.000 NA
ATOM     17  C   UNL     1      48.357   5.864  22.056  0.00  0.00    +0.000 A 
ATOM     18  C   UNL     1      48.751   6.972  21.319  0.00  0.00    +0.000 A 
ATOM     19  C   UNL     1      49.049   6.811  19.965  0.00  0.00    +0.000 A 
ATOM     20  C   UNL     1      48.934   5.521  19.413  0.00  0.00    +0.000 A 
ATOM     21  H   UNL     1      48.194   2.463  19.963  0.00  0.00    +0.000 HD
ENDBRANCH   9  12
ENDBRANCH   7  10
ENDBRANCH   1   7
BRANCH   4  22
ATOM     22  C   UNL     1      44.917   5.800  10.887  0.00  0.00    +0.000 C 
BRANCH  22  23
ATOM     23  N   UNL     1      44.511   4.382  10.692  0.00  0.00    +0.000 NA
BRANCH  23  24
ATOM     24  C   UNL     1      43.272   4.088  11.459  0.00  0.00    +0.000 C 
BRANCH  24  25
ATOM     25  C   UNL     1      42.499   5.320  11.971  0.00  0.00    +0.000 C 
BRANCH  25  26
ATOM     26  O   UNL     1      42.563   5.394  13.395  0.00  0.00    +0.000 OA
ATOM     27  H   UNL     1      42.525   4.482  13.732  0.00  0.00    +0.000 HD
ENDBRANCH  25  26
ENDBRANCH  24  25
ENDBRANCH  23  24
BRANCH  23  28
ATOM     28  C   UNL     1      44.282   4.115   9.258  0.00  0.00    +0.000 C 
BRANCH  28  29
ATOM     29  C   UNL     1      45.345   3.295   8.559  0.00  0.00    +0.000 A 
ATOM     30  C   UNL     1      45.462   1.915   8.783  0.00  0.00    +0.000 A 
ATOM     31  C   UNL     1      46.361   1.151   8.035  0.00  0.00    +0.000 A 
ATOM     32  C   UNL     1      47.155   1.760   7.062  0.00  0.00    +0.000 A 
ATOM     33  C   UNL     1      47.065   3.133   6.849  0.00  0.00    +0.000 A 
ATOM     34  C   UNL     1      46.166   3.898   7.594  0.00  0.00    +0.000 A 
ENDBRANCH  28  29
ENDBRANCH  23  28
ENDBRANCH  22  23
ENDBRANCH   4  22
TORSDOF 10
ENDMDL
MODEL 2
REMARK VINA RESULT:    -8.265      1.936      2.753
REMARK INTER + INTRA:         -13.849
REMARK INTER:                 -12.636
REMARK INTRA:                  -1.212
REMARK UNBOUND:                -0.994
REMARK  Name = 
REMARK  10 active torsions:
REMARK  status: ('A' for Active; 'I' for Inactive)
REMARK    1  A    between atoms: C_2  and  C_23
REMARK    2  A    between atoms: N_3  and  C_4
REMARK    3  A    between atoms: C_4  and  C_5
REMARK    4  A    between atoms: C_8  and  C_9
REMARK    5  A    between atoms: C_9  and  N_10
REMARK    6  A    between atoms: N_10  and  C_11
REMARK    7  A    between atoms: N_10  and  C_14
REMARK    8  A    between atoms: C_11  and  C_12
REMARK    9  A    between atoms: C_12  and  O_13
REMARK   10  A    between atoms: C_14  and  C_15
REMARK                            x       y       z     vdW  Elec       q    Type
REMARK                         _______ _______ _______ _____ _____    ______ ____
ROOT
ATOM      1  C   UNL     1      46.936   8.010  12.980  0.00  0.00    +0.000 A 
ATOM      2  C   UNL     1      47.495   7.065  12.109  0.00  0.00    +0.000 A 
ATOM      3  C   UNL     1      46.675   6.285  11.293  0.00  0.00    +0.000 A 
ATOM      4  C   UNL     1      45.283   6.432  11.337  0.00  0.00    +0.000 A 
ATOM      5  C   UNL     1      44.732   7.454  12.123  0.00  0.00    +0.000 A 
ATOM      6  C   UNL     1      45.553   8.239  12.935  0.00  0.00    +0.000 A 
ENDROOT
BRANCH   1   7
ATOM      7  C   UNL     1      47.806   8.748  13.959  0.00  0.00    +0.000 C 
BRANCH   7  10
ATOM      8  O   UNL     1      50.209   7.461  14.424  0.00  0.00    +0.000 OA
ATOM      9  C   UNL     1      49.318   7.347  15.261  0.00  0.00    +0.000 C 
ATOM     10  N   UNL     1      48.093   7.956  15.116  0.00  0.00    +0.000 N 
ATOM     11  H   UNL     1      47.402   7.900  15.849  0.00  0.00    +0.000 HD
BRANCH   9  12
ATOM     12  C   UNL     1      49.478   6.551  16.476  0.00  0.00    +0.000 A 
ATOM     13  C   UNL     1      50.334   6.803  17.543  0.00  0.00    +0.000 A 
ATOM     14  N   UNL     1      50.154   5.825  18.487  0.00  0.00    +0.000 N 
ATOM     15  C   UNL     1      49.202   4.944  18.064  0.00  0.00    +0.000 A 
ATOM     16  N   UNL     1      48.797   3.878  18.777  0.00  0.00    +0.000 NA
ATOM     17  C   UNL     1      47.841   3.159  18.147  0.00  0.00    +0.000 A 
ATOM     18  C   UNL     1      47.308   3.441  16.897  0.00  0.00    +0.000 A 
ATOM     19  C   UNL     1      47.768   4.561  16.203  0.00  0.00    +0.000 A 
ATOM     20  C   UNL     1      48.758   5.354  16.814  0.00  0.00    +0.000 A 
ATOM     21  H   UNL     1      50.629   5.747  19.372  0.00  0.00    +0.000 HD
ENDBRANCH   9  12
ENDBRANCH   7  10
ENDBRANCH   1   7
BRANCH   4  22
ATOM     22  C   UNL     1      44.386   5.446  10.610  0.00  0.00    +0.000 C 
BRANCH  22  23
ATOM     23  N   UNL     1      45.038   4.130  10.371  0.00  0.00    +0.000 NA
BRANCH  23  24
ATOM     24  C   UNL     1      44.797   3.216  11.519  0.00  0.00    +0.000 C 
BRANCH  24  25
ATOM     25  C   UNL     1      43.316   2.929  11.839  0.00  0.00    +0.000 C 
BRANCH  25  26
ATOM     26  O   UNL     1      43.023   1.544  11.655  0.00  0.00    +0.000 OA
ATOM     27  H   UNL     1      42.956   1.391  10.696  0.00  0.00    +0.000 HD
ENDBRANCH  25  26
ENDBRANCH  24  25
ENDBRANCH  23  24
BRANCH  23  28
ATOM     28  C   UNL     1      44.511   3.521   9.134  0.00  0.00    +0.000 C 
BRANCH  28  29
ATOM     29  C   UNL     1      45.528   2.832   8.248  0.00  0.00    +0.000 A 
ATOM     30  C   UNL     1      46.298   3.558   7.328  0.00  0.00    +0.000 A 
ATOM     31  C   UNL     1      47.320   2.930   6.611  0.00  0.00    +0.000 A 
ATOM     32  C   UNL     1      47.576   1.572   6.803  0.00  0.00    +0.000 A 
ATOM     33  C   UNL     1      46.800   0.837   7.695  0.00  0.00    +0.000 A 
ATOM     34  C   UNL     1      45.780   1.462   8.413  0.00  0.00    +0.000 A 
ENDBRANCH  28  29
ENDBRANCH  23  28
ENDBRANCH  22  23
ENDBRANCH   4  22
TORSDOF 10
ENDMDL
MODEL 3
REMARK VINA RESULT:    -7.810      1.882      2.578
REMARK INTER + INTRA:         -13.141
REMARK INTER:                 -12.203
REMARK INTRA:                  -0.939
REMARK UNBOUND:                -0.994
REMARK  Name = 
REMARK  10 active torsions:
REMARK  status: ('A' for Active; 'I' for Inactive)
REMARK    1  A    between atoms: C_2  and  C_23
REMARK    2  A    between atoms: N_3  and  C_4
REMARK    3  A    between atoms: C_4  and  C_5
REMARK    4  A    between atoms: C_8  and  C_9
REMARK    5  A    between atoms: C_9  and  N_10
REMARK    6  A    between atoms: N_10  and  C_11
REMARK    7  A    between atoms: N_10  and  C_14
REMARK    8  A    between atoms: C_11  and  C_12
REMARK    9  A    between atoms: C_12  and  O_13
REMARK   10  A    between atoms: C_14  and  C_15
REMARK                            x       y       z     vdW  Elec       q    Type
REMARK                         _______ _______ _______ _____ _____    ______ ____
ROOT
ATOM      1  C   UNL     1      47.756   6.872  13.911  0.00  0.00    +0.000 A 
ATOM      2  C   UNL     1      47.358   5.551  13.666  0.00  0.00    +0.000 A 
ATOM      3  C   UNL     1      46.485   5.260  12.617  0.00  0.00    +0.000 A 
ATOM      4  C   UNL     1      45.992   6.283  11.798  0.00  0.00    +0.000 A 
ATOM      5  C   UNL     1      46.478   7.587  11.973  0.00  0.00    +0.000 A 
ATOM      6  C   UNL     1      47.357   7.877  13.018  0.00  0.00    +0.000 A 
ENDROOT
BRANCH   1   7
ATOM      7  C   UNL     1      48.581   7.205  15.123  0.00  0.00    +0.000 C 
BRANCH   7  10
ATOM      8  O   UNL     1      48.862   6.663  17.820  0.00  0.00    +0.000 OA
ATOM      9  C   UNL     1      49.328   5.862  17.016  0.00  0.00    +0.000 C 
ATOM     10  N   UNL     1      49.231   6.046  15.657  0.00  0.00    +0.000 N 
ATOM     11  H   UNL     1      49.564   5.341  15.017  0.00  0.00    +0.000 HD
BRANCH   9  12
ATOM     12  C   UNL     1      50.032   4.650  17.431  0.00  0.00    +0.000 A 
ATOM     13  C   UNL     1      49.469   3.428  17.785  0.00  0.00    +0.000 A 
ATOM     14  N   UNL     1      50.482   2.554  18.085  0.00  0.00    +0.000 N 
ATOM     15  C   UNL     1      51.688   3.172  17.935  0.00  0.00    +0.000 A 
ATOM     16  N   UNL     1      52.872   2.571  18.147  0.00  0.00    +0.000 NA
ATOM     17  C   UNL     1      53.924   3.391  17.927  0.00  0.00    +0.000 A 
ATOM     18  C   UNL     1      53.845   4.720  17.534  0.00  0.00    +0.000 A 
ATOM     19  C   UNL     1      52.588   5.291  17.330  0.00  0.00    +0.000 A 
ATOM     20  C   UNL     1      51.455   4.482  17.534  0.00  0.00    +0.000 A 
ATOM     21  H   UNL     1      50.383   1.591  18.368  0.00  0.00    +0.000 HD
ENDBRANCH   9  12
ENDBRANCH   7  10
ENDBRANCH   1   7
BRANCH   4  22
ATOM     22  C   UNL     1      44.886   5.996  10.798  0.00  0.00    +0.000 C 
BRANCH  22  23
ATOM     23  N   UNL     1      44.593   4.545  10.652  0.00  0.00    +0.000 NA
BRANCH  23  24
ATOM     24  C   UNL     1      43.406   4.172  11.467  0.00  0.00    +0.000 C 
BRANCH  24  25
ATOM     25  C   UNL     1      42.535   5.349  11.948  0.00  0.00    +0.000 C 
BRANCH  25  26
ATOM     26  O   UNL     1      42.697   5.550  13.352  0.00  0.00    +0.000 OA
ATOM     27  H   UNL     1      41.852   5.315  13.775  0.00  0.00    +0.000 HD
ENDBRANCH  25  26
ENDBRANCH  24  25
ENDBRANCH  23  24
BRANCH  23  28
ATOM     28  C   UNL     1      44.343   4.219   9.234  0.00  0.00    +0.000 C 
BRANCH  28  29
ATOM     29  C   UNL     1      45.384   3.351   8.559  0.00  0.00    +0.000 A 
ATOM     30  C   UNL     1      45.444   1.971   8.799  0.00  0.00    +0.000 A 
ATOM     31  C   UNL     1      46.324   1.165   8.074  0.00  0.00    +0.000 A 
ATOM     32  C   UNL     1      47.154   1.731   7.107  0.00  0.00    +0.000 A 
ATOM     33  C   UNL     1      47.121   3.104   6.877  0.00  0.00    +0.000 A 
ATOM     34  C   UNL     1      46.242   3.911   7.600  0.00  0.00    +0.000 A 
ENDBRANCH  28  29
ENDBRANCH  23  28
ENDBRANCH  22  23
ENDBRANCH   4  22
TORSDOF 10
ENDMDL
MODEL 4
REMARK VINA RESULT:    -7.741      1.915      2.666
REMARK INTER + INTRA:         -13.034
REMARK INTER:                 -12.102
REMARK INTRA:                  -0.932
REMARK UNBOUND:                -0.994
REMARK  Name = 
REMARK  10 active torsions:
REMARK  status: ('A' for Active; 'I' for Inactive)
REMARK    1  A    between atoms: C_2  and  C_23
REMARK    2  A    between atoms: N_3  and  C_4
REMARK    3  A    between atoms: C_4  and  C_5
REMARK    4  A    between atoms: C_8  and  C_9
REMARK    5  A    between atoms: C_9  and  N_10
REMARK    6  A    between atoms: N_10  and  C_11
REMARK    7  A    between atoms: N_10  and  C_14
REMARK    8  A    between atoms: C_11  and  C_12
REMARK    9  A    between atoms: C_12  and  O_13
REMARK   10  A    between atoms: C_14  and  C_15
REMARK                            x       y       z     vdW  Elec       q    Type
REMARK                         _______ _______ _______ _____ _____    ______ ____
ROOT
ATOM      1  C   UNL     1      47.633   5.287  14.645  0.00  0.00    +0.000 A 
ATOM      2  C   UNL     1      46.902   4.177  14.202  0.00  0.00    +0.000 A 
ATOM      3  C   UNL     1      46.153   4.248  13.027  0.00  0.00    +0.000 A 
ATOM      4  C   UNL     1      46.119   5.430  12.277  0.00  0.00    +0.000 A 
ATOM      5  C   UNL     1      46.939   6.501  12.659  0.00  0.00    +0.000 A 
ATOM      6  C   UNL     1      47.693   6.428  13.832  0.00  0.00    +0.000 A 
ENDROOT
BRANCH   1   7
ATOM      7  C   UNL     1      48.324   5.258  15.980  0.00  0.00    +0.000 C 
BRANCH   7  10
ATOM      8  O   UNL     1      49.986   7.275  16.885  0.00  0.00    +0.000 OA
ATOM      9  C   UNL     1      48.807   7.300  17.223  0.00  0.00    +0.000 C 
ATOM     10  N   UNL     1      47.906   6.343  16.817  0.00  0.00    +0.000 N 
ATOM     11  H   UNL     1      46.929   6.423  17.054  0.00  0.00    +0.000 HD
BRANCH   9  12
ATOM     12  C   UNL     1      48.259   8.342  18.090  0.00  0.00    +0.000 A 
ATOM     13  C   UNL     1      47.968   9.658  17.746  0.00  0.00    +0.000 A 
ATOM     14  N   UNL     1      47.450  10.291  18.846  0.00  0.00    +0.000 N 
ATOM     15  C   UNL     1      47.393   9.422  19.896  0.00  0.00    +0.000 A 
ATOM     16  N   UNL     1      46.922   9.745  21.113  0.00  0.00    +0.000 NA
ATOM     17  C   UNL     1      46.966   8.713  21.984  0.00  0.00    +0.000 A 
ATOM     18  C   UNL     1      47.445   7.440  21.707  0.00  0.00    +0.000 A 
ATOM     19  C   UNL     1      47.923   7.162  20.425  0.00  0.00    +0.000 A 
ATOM     20  C   UNL     1      47.893   8.198  19.472  0.00  0.00    +0.000 A 
ATOM     21  H   UNL     1      47.139  11.248  18.900  0.00  0.00    +0.000 HD
ENDBRANCH   9  12
ENDBRANCH   7  10
ENDBRANCH   1   7
BRANCH   4  22
ATOM     22  C   UNL     1      45.145   5.574  11.121  0.00  0.00    +0.000 C 
BRANCH  22  23
ATOM     23  N   UNL     1      44.529   4.283  10.712  0.00  0.00    +0.000 NA
BRANCH  23  24
ATOM     24  C   UNL     1      43.221   4.094  11.393  0.00  0.00    +0.000 C 
BRANCH  24  25
ATOM     25  C   UNL     1      42.538   5.384  11.888  0.00  0.00    +0.000 C 
BRANCH  25  26
ATOM     26  O   UNL     1      42.523   5.426  13.315  0.00  0.00    +0.000 OA
ATOM     27  H   UNL     1      43.375   5.799  13.601  0.00  0.00    +0.000 HD
ENDBRANCH  25  26
ENDBRANCH  24  25
ENDBRANCH  23  24
BRANCH  23  28
ATOM     28  C   UNL     1      44.334   4.257   9.248  0.00  0.00    +0.000 C 
BRANCH  28  29
ATOM     29  C   UNL     1      45.264   3.349   8.472  0.00  0.00    +0.000 A 
ATOM     30  C   UNL     1      46.151   3.866   7.516  0.00  0.00    +0.000 A 
ATOM     31  C   UNL     1      47.091   3.035   6.901  0.00  0.00    +0.000 A 
ATOM     32  C   UNL     1      47.148   1.680   7.232  0.00  0.00    +0.000 A 
ATOM     33  C   UNL     1      46.255   1.152   8.160  0.00  0.00    +0.000 A 
ATOM     34  C   UNL     1      45.317   1.980   8.777  0.00  0.00    +0.000 A 
ENDBRANCH  28  29
ENDBRANCH  23  28
ENDBRANCH  22  23
ENDBRANCH   4  22
TORSDOF 10
ENDMDL
MODEL 5
REMARK VINA RESULT:    -7.360      2.325      3.042
REMARK INTER + INTRA:         -12.442
REMARK INTER:                 -11.875
REMARK INTRA:                  -0.567
REMARK UNBOUND:                -0.994
REMARK  Name = 
REMARK  10 active torsions:
REMARK  status: ('A' for Active; 'I' for Inactive)
REMARK    1  A    between atoms: C_2  and  C_23
REMARK    2  A    between atoms: N_3  and  C_4
REMARK    3  A    between atoms: C_4  and  C_5
REMARK    4  A    between atoms: C_8  and  C_9
REMARK    5  A    between atoms: C_9  and  N_10
REMARK    6  A    between atoms: N_10  and  C_11
REMARK    7  A    between atoms: N_10  and  C_14
REMARK    8  A    between atoms: C_11  and  C_12
REMARK    9  A    between atoms: C_12  and  O_13
REMARK   10  A    between atoms: C_14  and  C_15
REMARK                            x       y       z     vdW  Elec       q    Type
REMARK                         _______ _______ _______ _____ _____    ______ ____
ROOT
ATOM      1  C   UNL     1      47.641   5.746  14.322  0.00  0.00    +0.000 A 
ATOM      2  C   UNL     1      47.471   6.926  13.586  0.00  0.00    +0.000 A 
ATOM      3  C   UNL     1      46.707   6.926  12.419  0.00  0.00    +0.000 A 
ATOM      4  C   UNL     1      46.102   5.746  11.966  0.00  0.00    +0.000 A 
ATOM      5  C   UNL     1      46.178   4.594  12.762  0.00  0.00    +0.000 A 
ATOM      6  C   UNL     1      46.938   4.596  13.933  0.00  0.00    +0.000 A 
ENDROOT
BRANCH   1   7
ATOM      7  C   UNL     1      48.577   5.712  15.498  0.00  0.00    +0.000 C 
BRANCH   7  10
ATOM      8  O   UNL     1      50.062   6.452  17.711  0.00  0.00    +0.000 OA
ATOM      9  C   UNL     1      48.883   6.788  17.665  0.00  0.00    +0.000 C 
ATOM     10  N   UNL     1      48.070   6.470  16.602  0.00  0.00    +0.000 N 
ATOM     11  H   UNL     1      47.123   6.814  16.558  0.00  0.00    +0.000 HD
BRANCH   9  12
ATOM     12  C   UNL     1      48.240   7.547  18.735  0.00  0.00    +0.000 A 
ATOM     13  C   UNL     1      47.862   7.081  19.990  0.00  0.00    +0.000 A 
ATOM     14  N   UNL     1      47.315   8.122  20.695  0.00  0.00    +0.000 N 
ATOM     15  C   UNL     1      47.328   9.253  19.935  0.00  0.00    +0.000 A 
ATOM     16  N   UNL     1      46.867  10.445  20.353  0.00  0.00    +0.000 NA
ATOM     17  C   UNL     1      46.993  11.414  19.420  0.00  0.00    +0.000 A 
ATOM     18  C   UNL     1      47.525  11.249  18.148  0.00  0.00    +0.000 A 
ATOM     19  C   UNL     1      47.988   9.988  17.768  0.00  0.00    +0.000 A 
ATOM     20  C   UNL     1      47.890   8.941  18.704  0.00  0.00    +0.000 A 
ATOM     21  H   UNL     1      46.957   8.089  21.637  0.00  0.00    +0.000 HD
ENDBRANCH   9  12
ENDBRANCH   7  10
ENDBRANCH   1   7
BRANCH   4  22
ATOM     22  C   UNL     1      45.450   5.699  10.595  0.00  0.00    +0.000 C 
BRANCH  22  23
ATOM     23  N   UNL     1      44.761   4.409  10.320  0.00  0.00    +0.000 NA
BRANCH  23  24
ATOM     24  C   UNL     1      43.438   4.374  10.997  0.00  0.00    +0.000 C 
BRANCH  24  25
ATOM     25  C   UNL     1      43.266   3.273  12.062  0.00  0.00    +0.000 C 
BRANCH  25  26
ATOM     26  O   UNL     1      42.920   2.031  11.447  0.00  0.00    +0.000 OA
ATOM     27  H   UNL     1      42.516   2.240  10.587  0.00  0.00    +0.000 HD
ENDBRANCH  25  26
ENDBRANCH  24  25
ENDBRANCH  23  24
BRANCH  23  28
ATOM     28  C   UNL     1      44.580   4.232   8.866  0.00  0.00    +0.000 C 
BRANCH  28  29
ATOM     29  C   UNL     1      45.514   3.248   8.195  0.00  0.00    +0.000 A 
ATOM     30  C   UNL     1      46.492   3.680   7.287  0.00  0.00    +0.000 A 
ATOM     31  C   UNL     1      47.429   2.780   6.775  0.00  0.00    +0.000 A 
ATOM     32  C   UNL     1      47.392   1.439   7.161  0.00  0.00    +0.000 A 
ATOM     33  C   UNL     1      46.411   0.994   8.042  0.00  0.00    +0.000 A 
ATOM     34  C   UNL     1      45.475   1.893   8.556  0.00  0.00    +0.000 A 
ENDBRANCH  28  29
ENDBRANCH  23  28
ENDBRANCH  22  23
ENDBRANCH   4  22
TORSDOF 10
ENDMDL
MODEL 6
REMARK VINA RESULT:    -7.097      2.601      9.463
REMARK INTER + INTRA:         -12.032
REMARK INTER:                 -10.474
REMARK INTRA:                  -1.559
REMARK UNBOUND:                -0.994
REMARK  Name = 
REMARK  10 active torsions:
REMARK  status: ('A' for Active; 'I' for Inactive)
REMARK    1  A    between atoms: C_2  and  C_23
REMARK    2  A    between atoms: N_3  and  C_4
REMARK    3  A    between atoms: C_4  and  C_5
REMARK    4  A    between atoms: C_8  and  C_9
REMARK    5  A    between atoms: C_9  and  N_10
REMARK    6  A    between atoms: N_10  and  C_11
REMARK    7  A    between atoms: N_10  and  C_14
REMARK    8  A    between atoms: C_11  and  C_12
REMARK    9  A    between atoms: C_12  and  O_13
REMARK   10  A    between atoms: C_14  and  C_15
REMARK                            x       y       z     vdW  Elec       q    Type
REMARK                         _______ _______ _______ _____ _____    ______ ____
ROOT
ATOM      1  C   UNL     1      46.404   7.397  12.431  0.00  0.00    +0.000 A 
ATOM      2  C   UNL     1      46.369   8.501  13.293  0.00  0.00    +0.000 A 
ATOM      3  C   UNL     1      47.509   8.880  14.002  0.00  0.00    +0.000 A 
ATOM      4  C   UNL     1      48.702   8.159  13.866  0.00  0.00    +0.000 A 
ATOM      5  C   UNL     1      48.768   7.126  12.921  0.00  0.00    +0.000 A 
ATOM      6  C   UNL     1      47.628   6.751  12.206  0.00  0.00    +0.000 A 
ENDROOT
BRANCH   1   7
ATOM      7  C   UNL     1      45.143   6.903  11.777  0.00  0.00    +0.000 C 
BRANCH   7  10
ATOM      8  O   UNL     1      43.134   5.395  10.620  0.00  0.00    +0.000 OA
ATOM      9  C   UNL     1      44.283   4.965  10.572  0.00  0.00    +0.000 C 
ATOM     10  N   UNL     1      45.345   5.649  11.115  0.00  0.00    +0.000 N 
ATOM     11  H   UNL     1      46.288   5.307  11.004  0.00  0.00    +0.000 HD
BRANCH   9  12
ATOM     12  C   UNL     1      44.620   3.691   9.942  0.00  0.00    +0.000 A 
ATOM     13  C   UNL     1      44.158   2.427  10.296  0.00  0.00    +0.000 A 
ATOM     14  N   UNL     1      44.700   1.508   9.435  0.00  0.00    +0.000 N 
ATOM     15  C   UNL     1      45.501   2.139   8.529  0.00  0.00    +0.000 A 
ATOM     16  N   UNL     1      46.167   1.506   7.547  0.00  0.00    +0.000 NA
ATOM     17  C   UNL     1      46.890   2.349   6.776  0.00  0.00    +0.000 A 
ATOM     18  C   UNL     1      46.977   3.724   6.942  0.00  0.00    +0.000 A 
ATOM     19  C   UNL     1      46.263   4.326   7.980  0.00  0.00    +0.000 A 
ATOM     20  C   UNL     1      45.485   3.499   8.811  0.00  0.00    +0.000 A 
ATOM     21  H   UNL     1      44.543   0.512   9.439  0.00  0.00    +0.000 HD
ENDBRANCH   9  12
ENDBRANCH   7  10
ENDBRANCH   1   7
BRANCH   4  22
ATOM     22  C   UNL     1      49.875   8.440  14.790  0.00  0.00    +0.000 C 
BRANCH  22  23
ATOM     23  N   UNL     1      50.271   7.260  15.605  0.00  0.00    +0.000 NA
BRANCH  23  24
ATOM     24  C   UNL     1      51.555   7.523  16.307  0.00  0.00    +0.000 C 
BRANCH  24  25
ATOM     25  C   UNL     1      52.740   7.908  15.400  0.00  0.00    +0.000 C 
BRANCH  25  26
ATOM     26  O   UNL     1      53.473   6.746  15.012  0.00  0.00    +0.000 OA
ATOM     27  H   UNL     1      52.870   6.186  14.493  0.00  0.00    +0.000 HD
ENDBRANCH  25  26
ENDBRANCH  24  25
ENDBRANCH  23  24
BRANCH  23  28
ATOM     28  C   UNL     1      49.219   6.953  16.594  0.00  0.00    +0.000 C 
BRANCH  28  29
ATOM     29  C   UNL     1      48.780   5.506  16.668  0.00  0.00    +0.000 A 
ATOM     30  C   UNL     1      47.721   5.028  15.882  0.00  0.00    +0.000 A 
ATOM     31  C   UNL     1      47.412   3.666  15.866  0.00  0.00    +0.000 A 
ATOM     32  C   UNL     1      48.153   2.772  16.638  0.00  0.00    +0.000 A 
ATOM     33  C   UNL     1      49.190   3.238  17.442  0.00  0.00    +0.000 A 
ATOM     34  C   UNL     1      49.502   4.598  17.459  0.00  0.00    +0.000 A 
ENDBRANCH  28  29
ENDBRANCH  23  28
ENDBRANCH  22  23
ENDBRANCH   4  22
TORSDOF 10
ENDMDL
MODEL 7
REMARK VINA RESULT:    -6.903      4.628      6.449
REMARK INTER + INTRA:         -11.731
REMARK INTER:                 -10.660
REMARK INTRA:                  -1.071
REMARK UNBOUND:                -0.994
REMARK  Name = 
REMARK  10 active torsions:
REMARK  status: ('A' for Active; 'I' for Inactive)
REMARK    1  A    between atoms: C_2  and  C_23
REMARK    2  A    between atoms: N_3  and  C_4
REMARK    3  A    between atoms: C_4  and  C_5
REMARK    4  A    between atoms: C_8  and  C_9
REMARK    5  A    between atoms: C_9  and  N_10
REMARK    6  A    between atoms: N_10  and  C_11
REMARK    7  A    between atoms: N_10  and  C_14
REMARK    8  A    between atoms: C_11  and  C_12
REMARK    9  A    between atoms: C_12  and  O_13
REMARK   10  A    between atoms: C_14  and  C_15
REMARK                            x       y       z     vdW  Elec       q    Type
REMARK                         _______ _______ _______ _____ _____    ______ ____
ROOT
ATOM      1  C   UNL     1      46.937   8.004  12.657  0.00  0.00    +0.000 A 
ATOM      2  C   UNL     1      47.393   6.917  11.899  0.00  0.00    +0.000 A 
ATOM      3  C   UNL     1      46.492   6.124  11.189  0.00  0.00    +0.000 A 
ATOM      4  C   UNL     1      45.119   6.400  11.227  0.00  0.00    +0.000 A 
ATOM      5  C   UNL     1      44.677   7.553  11.892  0.00  0.00    +0.000 A 
ATOM      6  C   UNL     1      45.580   8.350  12.597  0.00  0.00    +0.000 A 
ENDROOT
BRANCH   1   7
ATOM      7  C   UNL     1      47.888   8.771  13.533  0.00  0.00    +0.000 C 
BRANCH   7  10
ATOM      8  O   UNL     1      50.402   7.680  13.901  0.00  0.00    +0.000 OA
ATOM      9  C   UNL     1      50.274   8.576  13.072  0.00  0.00    +0.000 C 
ATOM     10  N   UNL     1      49.062   9.173  12.818  0.00  0.00    +0.000 N 
ATOM     11  H   UNL     1      48.970   9.861  12.086  0.00  0.00    +0.000 HD
BRANCH   9  12
ATOM     12  C   UNL     1      51.397   9.090  12.290  0.00  0.00    +0.000 A 
ATOM     13  C   UNL     1      52.136  10.242  12.534  0.00  0.00    +0.000 A 
ATOM     14  N   UNL     1      53.112  10.345  11.576  0.00  0.00    +0.000 N 
ATOM     15  C   UNL     1      53.029   9.289  10.716  0.00  0.00    +0.000 A 
ATOM     16  N   UNL     1      53.857   9.103   9.674  0.00  0.00    +0.000 NA
ATOM     17  C   UNL     1      53.576   7.982   8.973  0.00  0.00    +0.000 A 
ATOM     18  C   UNL     1      52.549   7.090   9.251  0.00  0.00    +0.000 A 
ATOM     19  C   UNL     1      51.719   7.336  10.347  0.00  0.00    +0.000 A 
ATOM     20  C   UNL     1      51.971   8.485  11.120  0.00  0.00    +0.000 A 
ATOM     21  H   UNL     1      53.806  11.072  11.497  0.00  0.00    +0.000 HD
ENDBRANCH   9  12
ENDBRANCH   7  10
ENDBRANCH   1   7
BRANCH   4  22
ATOM     22  C   UNL     1      44.124   5.420  10.630  0.00  0.00    +0.000 C 
BRANCH  22  23
ATOM     23  N   UNL     1      44.666   4.039  10.510  0.00  0.00    +0.000 NA
BRANCH  23  24
ATOM     24  C   UNL     1      44.178   3.192  11.629  0.00  0.00    +0.000 C 
BRANCH  24  25
ATOM     25  C   UNL     1      43.844   3.942  12.934  0.00  0.00    +0.000 C 
BRANCH  25  26
ATOM     26  O   UNL     1      45.014   4.095  13.737  0.00  0.00    +0.000 OA
ATOM     27  H   UNL     1      45.661   4.595  13.209  0.00  0.00    +0.000 HD
ENDBRANCH  25  26
ENDBRANCH  24  25
ENDBRANCH  23  24
BRANCH  23  28
ATOM     28  C   UNL     1      44.255   3.446   9.222  0.00  0.00    +0.000 C 
BRANCH  28  29
ATOM     29  C   UNL     1      45.370   2.896   8.358  0.00  0.00    +0.000 A 
ATOM     30  C   UNL     1      46.154   3.742   7.560  0.00  0.00    +0.000 A 
ATOM     31  C   UNL     1      47.259   3.239   6.870  0.00  0.00    +0.000 A 
ATOM     32  C   UNL     1      47.586   1.886   6.966  0.00  0.00    +0.000 A 
ATOM     33  C   UNL     1      46.800   1.032   7.735  0.00  0.00    +0.000 A 
ATOM     34  C   UNL     1      45.697   1.533   8.427  0.00  0.00    +0.000 A 
ENDBRANCH  28  29
ENDBRANCH  23  28
ENDBRANCH  22  23
ENDBRANCH   4  22
TORSDOF 10
ENDMDL
MODEL 8
REMARK VINA RESULT:    -6.814      3.341      9.518
REMARK INTER + INTRA:         -11.592
REMARK INTER:                  -9.835
REMARK INTRA:                  -1.757
REMARK UNBOUND:                -0.994
REMARK  Name = 
REMARK  10 active torsions:
REMARK  status: ('A' for Active; 'I' for Inactive)
REMARK    1  A    between atoms: C_2  and  C_23
REMARK    2  A    between atoms: N_3  and  C_4
REMARK    3  A    between atoms: C_4  and  C_5
REMARK    4  A    between atoms: C_8  and  C_9
REMARK    5  A    between atoms: C_9  and  N_10
REMARK    6  A    between atoms: N_10  and  C_11
REMARK    7  A    between atoms: N_10  and  C_14
REMARK    8  A    between atoms: C_11  and  C_12
REMARK    9  A    between atoms: C_12  and  O_13
REMARK   10  A    between atoms: C_14  and  C_15
REMARK                            x       y       z     vdW  Elec       q    Type
REMARK                         _______ _______ _______ _____ _____    ______ ____
ROOT
ATOM      1  C   UNL     1      46.788   8.051  12.334  0.00  0.00    +0.000 A 
ATOM      2  C   UNL     1      47.045   9.339  12.822  0.00  0.00    +0.000 A 
ATOM      3  C   UNL     1      48.349   9.834  12.859  0.00  0.00    +0.000 A 
ATOM      4  C   UNL     1      49.419   9.048  12.412  0.00  0.00    +0.000 A 
ATOM      5  C   UNL     1      49.149   7.806  11.819  0.00  0.00    +0.000 A 
ATOM      6  C   UNL     1      47.843   7.314  11.777  0.00  0.00    +0.000 A 
ENDROOT
BRANCH   1   7
ATOM      7  C   UNL     1      45.406   7.466  12.426  0.00  0.00    +0.000 C 
BRANCH   7  10
ATOM      8  O   UNL     1      43.160   6.325  11.286  0.00  0.00    +0.000 OA
ATOM      9  C   UNL     1      44.187   5.657  11.336  0.00  0.00    +0.000 C 
ATOM     10  N   UNL     1      45.353   6.143  11.880  0.00  0.00    +0.000 N 
ATOM     11  H   UNL     1      46.201   5.598  11.850  0.00  0.00    +0.000 HD
BRANCH   9  12
ATOM     12  C   UNL     1      44.260   4.287  10.832  0.00  0.00    +0.000 A 
ATOM     13  C   UNL     1      43.647   3.158  11.366  0.00  0.00    +0.000 A 
ATOM     14  N   UNL     1      43.954   2.081  10.575  0.00  0.00    +0.000 N 
ATOM     15  C   UNL     1      44.747   2.478   9.539  0.00  0.00    +0.000 A 
ATOM     16  N   UNL     1      45.208   1.650   8.585  0.00  0.00    +0.000 NA
ATOM     17  C   UNL     1      45.970   2.281   7.665  0.00  0.00    +0.000 A 
ATOM     18  C   UNL     1      46.284   3.633   7.664  0.00  0.00    +0.000 A 
ATOM     19  C   UNL     1      45.778   4.445   8.681  0.00  0.00    +0.000 A 
ATOM     20  C   UNL     1      44.969   3.844   9.663  0.00  0.00    +0.000 A 
ATOM     21  H   UNL     1      43.647   1.130  10.706  0.00  0.00    +0.000 HD
ENDBRANCH   9  12
ENDBRANCH   7  10
ENDBRANCH   1   7
BRANCH   4  22
ATOM     22  C   UNL     1      50.850   9.500  12.644  0.00  0.00    +0.000 C 
BRANCH  22  23
ATOM     23  N   UNL     1      51.668   8.496  13.376  0.00  0.00    +0.000 NA
BRANCH  23  24
ATOM     24  C   UNL     1      53.109   8.663  13.049  0.00  0.00    +0.000 C 
BRANCH  24  25
ATOM     25  C   UNL     1      54.095   8.095  14.088  0.00  0.00    +0.000 C 
BRANCH  25  26
ATOM     26  O   UNL     1      54.235   6.684  13.927  0.00  0.00    +0.000 OA
ATOM     27  H   UNL     1      53.357   6.290  14.073  0.00  0.00    +0.000 HD
ENDBRANCH  25  26
ENDBRANCH  24  25
ENDBRANCH  23  24
BRANCH  23  28
ATOM     28  C   UNL     1      51.469   8.645  14.831  0.00  0.00    +0.000 C 
BRANCH  28  29
ATOM     29  C   UNL     1      50.822   7.472  15.537  0.00  0.00    +0.000 A 
ATOM     30  C   UNL     1      51.571   6.617  16.358  0.00  0.00    +0.000 A 
ATOM     31  C   UNL     1      50.938   5.619  17.103  0.00  0.00    +0.000 A 
ATOM     32  C   UNL     1      49.554   5.463  17.028  0.00  0.00    +0.000 A 
ATOM     33  C   UNL     1      48.804   6.290  16.197  0.00  0.00    +0.000 A 
ATOM     34  C   UNL     1      49.434   7.289  15.453  0.00  0.00    +0.000 A 
ENDBRANCH  28  29
ENDBRANCH  23  28
ENDBRANCH  22  23
ENDBRANCH   4  22
TORSDOF 10
ENDMDL
MODEL 9
REMARK VINA RESULT:    -6.777      3.392     10.459
REMARK INTER + INTRA:         -11.534
REMARK INTER:                  -9.392
REMARK INTRA:                  -2.143
REMARK UNBOUND:                -0.994
REMARK  Name = 
REMARK  10 active torsions:
REMARK  status: ('A' for Active; 'I' for Inactive)
REMARK    1  A    between atoms: C_2  and  C_23
REMARK    2  A    between atoms: N_3  and  C_4
REMARK    3  A    between atoms: C_4  and  C_5
REMARK    4  A    between atoms: C_8  and  C_9
REMARK    5  A    between atoms: C_9  and  N_10
REMARK    6  A    between atoms: N_10  and  C_11
REMARK    7  A    between atoms: N_10  and  C_14
REMARK    8  A    between atoms: C_11  and  C_12
REMARK    9  A    between atoms: C_12  and  O_13
REMARK   10  A    between atoms: C_14  and  C_15
REMARK                            x       y       z     vdW  Elec       q    Type
REMARK                         _______ _______ _______ _____ _____    ______ ____
ROOT
ATOM      1  C   UNL     1      48.836   4.029  17.075  0.00  0.00    +0.000 A 
ATOM      2  C   UNL     1      49.402   5.306  16.979  0.00  0.00    +0.000 A 
ATOM      3  C   UNL     1      50.734   5.517  17.339  0.00  0.00    +0.000 A 
ATOM      4  C   UNL     1      51.520   4.455  17.803  0.00  0.00    +0.000 A 
ATOM      5  C   UNL     1      50.987   3.158  17.791  0.00  0.00    +0.000 A 
ATOM      6  C   UNL     1      49.656   2.947  17.425  0.00  0.00    +0.000 A 
ENDROOT
BRANCH   1   7
ATOM      7  C   UNL     1      47.366   3.829  16.825  0.00  0.00    +0.000 C 
BRANCH   7  10
ATOM      8  O   UNL     1      47.324   3.139  14.147  0.00  0.00    +0.000 OA
ATOM      9  C   UNL     1      46.910   4.248  14.466  0.00  0.00    +0.000 C 
ATOM     10  N   UNL     1      46.887   4.675  15.774  0.00  0.00    +0.000 N 
ATOM     11  H   UNL     1      46.481   5.565  16.017  0.00  0.00    +0.000 HD
BRANCH   9  12
ATOM     12  C   UNL     1      46.412   5.213  13.488  0.00  0.00    +0.000 A 
ATOM     13  C   UNL     1      47.118   6.257  12.899  0.00  0.00    +0.000 A 
ATOM     14  N   UNL     1      46.285   6.905  12.022  0.00  0.00    +0.000 N 
ATOM     15  C   UNL     1      45.058   6.311  12.024  0.00  0.00    +0.000 A 
ATOM     16  N   UNL     1      44.028   6.713  11.259  0.00  0.00    +0.000 NA
ATOM     17  C   UNL     1      42.918   5.963  11.436  0.00  0.00    +0.000 A 
ATOM     18  C   UNL     1      42.798   4.887  12.306  0.00  0.00    +0.000 A 
ATOM     19  C   UNL     1      43.902   4.515  13.075  0.00  0.00    +0.000 A 
ATOM     20  C   UNL     1      45.089   5.256  12.927  0.00  0.00    +0.000 A 
ATOM     21  H   UNL     1      46.519   7.697  11.443  0.00  0.00    +0.000 HD
ENDBRANCH   9  12
ENDBRANCH   7  10
ENDBRANCH   1   7
BRANCH   4  22
ATOM     22  C   UNL     1      52.896   4.721  18.389  0.00  0.00    +0.000 C 
BRANCH  22  23
ATOM     23  N   UNL     1      53.036   4.244  19.792  0.00  0.00    +0.000 NA
BRANCH  23  24
ATOM     24  C   UNL     1      54.414   3.742  20.034  0.00  0.00    +0.000 C 
BRANCH  24  25
ATOM     25  C   UNL     1      54.661   2.270  19.652  0.00  0.00    +0.000 C 
BRANCH  25  26
ATOM     26  O   UNL     1      54.802   1.466  20.823  0.00  0.00    +0.000 OA
ATOM     27  H   UNL     1      54.211   1.839  21.500  0.00  0.00    +0.000 HD
ENDBRANCH  25  26
ENDBRANCH  24  25
ENDBRANCH  23  24
BRANCH  23  28
ATOM     28  C   UNL     1      52.735   5.342  20.731  0.00  0.00    +0.000 C 
BRANCH  28  29
ATOM     29  C   UNL     1      51.283   5.763  20.819  0.00  0.00    +0.000 A 
ATOM     30  C   UNL     1      50.888   7.074  20.516  0.00  0.00    +0.000 A 
ATOM     31  C   UNL     1      49.534   7.412  20.476  0.00  0.00    +0.000 A 
ATOM     32  C   UNL     1      48.564   6.446  20.745  0.00  0.00    +0.000 A 
ATOM     33  C   UNL     1      48.946   5.148  21.072  0.00  0.00    +0.000 A 
ATOM     34  C   UNL     1      50.298   4.807  21.111  0.00  0.00    +0.000 A 
ENDBRANCH  28  29
ENDBRANCH  23  28
ENDBRANCH  22  23
ENDBRANCH   4  22
TORSDOF 10
ENDMDL
