MODEL 1
REMARK VINA RESULT:    -8.158      0.000      0.000
REMARK INTER + INTRA:         -13.231
REMARK INTER:                 -11.973
REMARK INTRA:                  -1.258
REMARK UNBOUND:                -1.258
REMARK  Name = 
REMARK  8 active torsions:
REMARK  status: ('A' for Active; 'I' for Inactive)
REMARK    1  A    between atoms: C_2  and  C_3
REMARK    2  A    between atoms: C_3  and  N_4
REMARK    3  A    between atoms: C_3  and  C_26
REMARK    4  A    between atoms: N_4  and  C_5
REMARK    5  A    between atoms: C_5  and  C_6
REMARK    6  A    between atoms: C_9  and  C_10
REMARK    7  A    between atoms: C_10  and  N_11
REMARK    8  A    between atoms: C_12  and  C_14
REMARK                            x       y       z     vdW  Elec       q    Type
REMARK                         _______ _______ _______ _____ _____    ______ ____
ROOT
ATOM      1  C   UNL     1      45.280   6.609  11.218  0.00  0.00    +0.000 A 
ATOM      2  C   UNL     1      46.610   6.205  11.407  0.00  0.00    +0.000 A 
ATOM      3  C   UNL     1      47.417   6.836  12.355  0.00  0.00    +0.000 A 
ATOM      4  C   UNL     1      46.913   7.892  13.123  0.00  0.00    +0.000 A 
ATOM      5  C   UNL     1      45.604   8.334  12.896  0.00  0.00    +0.000 A 
ATOM      6  C   UNL     1      44.791   7.693  11.960  0.00  0.00    +0.000 A 
ENDROOT
BRANCH   1   7
ATOM      7  C   UNL     1      44.395   5.917  10.209  0.00  0.00    +0.000 C 
BRANCH   7   8
ATOM      8  N   UNL     1      45.195   5.259   9.170  0.00  0.00    +0.000 NA
ATOM      9  H   UNL     1      45.215   5.857   8.346  0.00  0.00    +0.000 HD
BRANCH   8  10
ATOM     10  C   UNL     1      44.660   3.946   8.773  0.00  0.00    +0.000 C 
BRANCH  10  11
ATOM     11  C   UNL     1      45.707   3.064   8.054  0.00  0.00    +0.000 A 
ATOM     12  C   UNL     1      45.951   1.720   8.429  0.00  0.00    +0.000 A 
ATOM     13  C   UNL     1      46.861   0.920   7.739  0.00  0.00    +0.000 A 
ATOM     14  C   UNL     1      47.555   1.446   6.658  0.00  0.00    +0.000 A 
ATOM     15  C   UNL     1      47.356   2.774   6.285  0.00  0.00    +0.000 A 
ATOM     16  C   UNL     1      46.442   3.579   6.975  0.00  0.00    +0.000 A 
ENDBRANCH  10  11
BRANCH  10  18
ATOM     17  N   UNL     1      43.587   2.495  10.889  0.00  0.00    +0.000 NA
ATOM     18  C   UNL     1      44.074   3.153   9.929  0.00  0.00    +0.000 C 
ENDBRANCH  10  18
ENDBRANCH   8  10
ENDBRANCH   7   8
ENDBRANCH   1   7
BRANCH   4  19
ATOM     19  C   UNL     1      47.779   8.575  14.145  0.00  0.00    +0.000 C 
BRANCH  19  20
ATOM     20  N   UNL     1      48.026   7.716  15.272  0.00  0.00    +0.000 N 
ATOM     21  C   UNL     1      49.240   7.107  15.438  0.00  0.00    +0.000 C 
ATOM     22  O   UNL     1      50.176   7.299  14.665  0.00  0.00    +0.000 OA
ATOM     23  H   UNL     1      47.218   7.387  15.792  0.00  0.00    +0.000 HD
BRANCH  21  24
ATOM     24  C   UNL     1      49.392   6.259  16.626  0.00  0.00    +0.000 A 
ATOM     25  C   UNL     1      50.355   6.577  17.574  0.00  0.00    +0.000 A 
ATOM     26  S   UNL     1      50.366   5.527  18.915  0.00  0.00    +0.000 S 
ATOM     27  C   UNL     1      49.116   4.580  18.254  0.00  0.00    +0.000 A 
ATOM     28  N   UNL     1      48.653   3.480  18.906  0.00  0.00    +0.000 NA
ATOM     29  C   UNL     1      47.726   2.837  18.277  0.00  0.00    +0.000 A 
ATOM     30  N   UNL     1      47.217   3.197  17.057  0.00  0.00    +0.000 N 
ATOM     31  C   UNL     1      47.631   4.318  16.376  0.00  0.00    +0.000 A 
ATOM     32  O   UNL     1      47.119   4.638  15.309  0.00  0.00    +0.000 OA
ATOM     33  C   UNL     1      48.684   5.069  17.033  0.00  0.00    +0.000 A 
ATOM     34  H   UNL     1      46.483   2.658  16.622  0.00  0.00    +0.000 HD
ENDBRANCH  21  24
ENDBRANCH  19  20
ENDBRANCH   4  19
TORSDOF 8
ENDMDL
MODEL 2
REMARK VINA RESULT:    -7.920      1.884      2.240
REMARK INTER + INTRA:         -12.883
REMARK INTER:                 -12.068
REMARK INTRA:                  -0.815
REMARK UNBOUND:                -1.258
REMARK  Name = 
REMARK  8 active torsions:
REMARK  status: ('A' for Active; 'I' for Inactive)
REMARK    1  A    between atoms: C_2  and  C_3
REMARK    2  A    between atoms: C_3  and  N_4
REMARK    3  A    between atoms: C_3  and  C_26
REMARK    4  A    between atoms: N_4  and  C_5
REMARK    5  A    between atoms: C_5  and  C_6
REMARK    6  A    between atoms: C_9  and  C_10
REMARK    7  A    between atoms: C_10  and  N_11
REMARK    8  A    between atoms: C_12  and  C_14
REMARK                            x       y       z     vdW  Elec       q    Type
REMARK                         _______ _______ _______ _____ _____    ______ ____
ROOT
ATOM      1  C   UNL     1      45.291   6.011  12.041  0.00  0.00    +0.000 A 
ATOM      2  C   UNL     1      45.924   7.255  11.906  0.00  0.00    +0.000 A 
ATOM      3  C   UNL     1      47.076   7.550  12.636  0.00  0.00    +0.000 A 
ATOM      4  C   UNL     1      47.611   6.609  13.523  0.00  0.00    +0.000 A 
ATOM      5  C   UNL     1      46.949   5.389  13.702  0.00  0.00    +0.000 A 
ATOM      6  C   UNL     1      45.806   5.087  12.960  0.00  0.00    +0.000 A 
ENDROOT
BRANCH   1   7
ATOM      7  C   UNL     1      44.056   5.678  11.240  0.00  0.00    +0.000 C 
BRANCH   7   8
ATOM      8  N   UNL     1      44.403   5.317   9.860  0.00  0.00    +0.000 NA
ATOM      9  H   UNL     1      43.927   5.955   9.226  0.00  0.00    +0.000 HD
BRANCH   8  10
ATOM     10  C   UNL     1      44.017   3.941   9.506  0.00  0.00    +0.000 C 
BRANCH  10  11
ATOM     11  C   UNL     1      45.117   3.191   8.721  0.00  0.00    +0.000 A 
ATOM     12  C   UNL     1      45.317   1.794   8.845  0.00  0.00    +0.000 A 
ATOM     13  C   UNL     1      46.279   1.123   8.093  0.00  0.00    +0.000 A 
ATOM     14  C   UNL     1      47.071   1.831   7.200  0.00  0.00    +0.000 A 
ATOM     15  C   UNL     1      46.917   3.212   7.080  0.00  0.00    +0.000 A 
ATOM     16  C   UNL     1      45.950   3.889   7.833  0.00  0.00    +0.000 A 
ENDBRANCH  10  11
BRANCH  10  18
ATOM     17  N   UNL     1      43.282   2.393  11.696  0.00  0.00    +0.000 NA
ATOM     18  C   UNL     1      43.615   3.095  10.703  0.00  0.00    +0.000 C 
ENDBRANCH  10  18
ENDBRANCH   8  10
ENDBRANCH   7   8
ENDBRANCH   1   7
BRANCH   4  19
ATOM     19  C   UNL     1      48.853   6.923  14.312  0.00  0.00    +0.000 C 
BRANCH  19  20
ATOM     20  N   UNL     1      48.541   7.144  15.700  0.00  0.00    +0.000 N 
ATOM     21  C   UNL     1      49.260   6.527  16.688  0.00  0.00    +0.000 C 
ATOM     22  O   UNL     1      50.219   5.801  16.438  0.00  0.00    +0.000 OA
ATOM     23  H   UNL     1      47.642   7.565  15.913  0.00  0.00    +0.000 HD
BRANCH  21  24
ATOM     24  C   UNL     1      48.868   6.829  18.069  0.00  0.00    +0.000 A 
ATOM     25  C   UNL     1      48.624   8.145  18.438  0.00  0.00    +0.000 A 
ATOM     26  S   UNL     1      48.128   8.318  20.059  0.00  0.00    +0.000 S 
ATOM     27  C   UNL     1      48.272   6.646  20.340  0.00  0.00    +0.000 A 
ATOM     28  N   UNL     1      48.009   6.118  21.565  0.00  0.00    +0.000 NA
ATOM     29  C   UNL     1      48.187   4.842  21.647  0.00  0.00    +0.000 A 
ATOM     30  N   UNL     1      48.599   4.044  20.612  0.00  0.00    +0.000 N 
ATOM     31  C   UNL     1      48.845   4.528  19.349  0.00  0.00    +0.000 A 
ATOM     32  O   UNL     1      49.166   3.778  18.433  0.00  0.00    +0.000 OA
ATOM     33  C   UNL     1      48.675   5.961  19.207  0.00  0.00    +0.000 A 
ATOM     34  H   UNL     1      48.709   3.049  20.737  0.00  0.00    +0.000 HD
ENDBRANCH  21  24
ENDBRANCH  19  20
ENDBRANCH   4  19
TORSDOF 8
ENDMDL
MODEL 3
REMARK VINA RESULT:    -7.859      2.167      2.669
REMARK INTER + INTRA:         -12.792
REMARK INTER:                 -11.701
REMARK INTRA:                  -1.091
REMARK UNBOUND:                -1.258
REMARK  Name = 
REMARK  8 active torsions:
REMARK  status: ('A' for Active; 'I' for Inactive)
REMARK    1  A    between atoms: C_2  and  C_3
REMARK    2  A    between atoms: C_3  and  N_4
REMARK    3  A    between atoms: C_3  and  C_26
REMARK    4  A    between atoms: N_4  and  C_5
REMARK    5  A    between atoms: C_5  and  C_6
REMARK    6  A    between atoms: C_9  and  C_10
REMARK    7  A    between atoms: C_10  and  N_11
REMARK    8  A    between atoms: C_12  and  C_14
REMARK                            x       y       z     vdW  Elec       q    Type
REMARK                         _______ _______ _______ _____ _____    ______ ____
ROOT
ATOM      1  C   UNL     1      45.321   6.044  12.053  0.00  0.00    +0.000 A 
ATOM      2  C   UNL     1      45.903   7.321  12.039  0.00  0.00    +0.000 A 
ATOM      3  C   UNL     1      47.017   7.603  12.832  0.00  0.00    +0.000 A 
ATOM      4  C   UNL     1      47.562   6.617  13.662  0.00  0.00    +0.000 A 
ATOM      5  C   UNL     1      46.948   5.360  13.720  0.00  0.00    +0.000 A 
ATOM      6  C   UNL     1      45.845   5.072  12.915  0.00  0.00    +0.000 A 
ENDROOT
BRANCH   1   7
ATOM      7  C   UNL     1      44.130   5.726  11.182  0.00  0.00    +0.000 C 
BRANCH   7   8
ATOM      8  N   UNL     1      44.552   5.333   9.833  0.00  0.00    +0.000 NA
ATOM      9  H   UNL     1      44.162   5.994   9.163  0.00  0.00    +0.000 HD
BRANCH   8  10
ATOM     10  C   UNL     1      44.107   3.981   9.458  0.00  0.00    +0.000 C 
BRANCH  10  11
ATOM     11  C   UNL     1      45.186   3.187   8.685  0.00  0.00    +0.000 A 
ATOM     12  C   UNL     1      45.335   1.785   8.818  0.00  0.00    +0.000 A 
ATOM     13  C   UNL     1      46.278   1.074   8.076  0.00  0.00    +0.000 A 
ATOM     14  C   UNL     1      47.100   1.749   7.185  0.00  0.00    +0.000 A 
ATOM     15  C   UNL     1      46.996   3.134   7.056  0.00  0.00    +0.000 A 
ATOM     16  C   UNL     1      46.049   3.849   7.798  0.00  0.00    +0.000 A 
ENDBRANCH  10  11
BRANCH  10  18
ATOM     17  N   UNL     1      43.262   2.448  11.618  0.00  0.00    +0.000 NA
ATOM     18  C   UNL     1      43.645   3.142  10.638  0.00  0.00    +0.000 C 
ENDBRANCH  10  18
ENDBRANCH   8  10
ENDBRANCH   7   8
ENDBRANCH   1   7
BRANCH   4  19
ATOM     19  C   UNL     1      48.761   6.917  14.518  0.00  0.00    +0.000 C 
BRANCH  19  20
ATOM     20  N   UNL     1      48.473   6.689  15.910  0.00  0.00    +0.000 N 
ATOM     21  C   UNL     1      49.410   6.135  16.739  0.00  0.00    +0.000 C 
ATOM     22  O   UNL     1      50.539   5.852  16.348  0.00  0.00    +0.000 OA
ATOM     23  H   UNL     1      47.498   6.722  16.194  0.00  0.00    +0.000 HD
BRANCH  21  24
ATOM     24  C   UNL     1      49.019   5.955  18.142  0.00  0.00    +0.000 A 
ATOM     25  C   UNL     1      49.236   4.731  18.761  0.00  0.00    +0.000 A 
ATOM     26  S   UNL     1      48.776   4.705  20.401  0.00  0.00    +0.000 S 
ATOM     27  C   UNL     1      48.223   6.313  20.330  0.00  0.00    +0.000 A 
ATOM     28  N   UNL     1      47.674   6.912  21.420  0.00  0.00    +0.000 NA
ATOM     29  C   UNL     1      47.269   8.121  21.218  0.00  0.00    +0.000 A 
ATOM     30  N   UNL     1      47.368   8.788  20.025  0.00  0.00    +0.000 N 
ATOM     31  C   UNL     1      47.945   8.235  18.906  0.00  0.00    +0.000 A 
ATOM     32  O   UNL     1      48.062   8.877  17.868  0.00  0.00    +0.000 OA
ATOM     33  C   UNL     1      48.403   6.869  19.075  0.00  0.00    +0.000 A 
ATOM     34  H   UNL     1      47.042   9.738  19.934  0.00  0.00    +0.000 HD
ENDBRANCH  21  24
ENDBRANCH  19  20
ENDBRANCH   4  19
TORSDOF 8
ENDMDL
MODEL 4
REMARK VINA RESULT:    -7.568      1.383      1.693
REMARK INTER + INTRA:         -12.366
REMARK INTER:                 -11.244
REMARK INTRA:                  -1.123
REMARK UNBOUND:                -1.258
REMARK  Name = 
REMARK  8 active torsions:
REMARK  status: ('A' for Active; 'I' for Inactive)
REMARK    1  A    between atoms: C_2  and  C_3
REMARK    2  A    between atoms: C_3  and  N_4
REMARK    3  A    between atoms: C_3  and  C_26
REMARK    4  A    between atoms: N_4  and  C_5
REMARK    5  A    between atoms: C_5  and  C_6
REMARK    6  A    between atoms: C_9  and  C_10
REMARK    7  A    between atoms: C_10  and  N_11
REMARK    8  A    between atoms: C_12  and  C_14
REMARK                            x       y       z     vdW  Elec       q    Type
REMARK                         _______ _______ _______ _____ _____    ______ ____
ROOT
ATOM      1  C   UNL     1      45.526   6.726  11.766  0.00  0.00    +0.000 A 
ATOM      2  C   UNL     1      45.278   7.986  12.330  0.00  0.00    +0.000 A 
ATOM      3  C   UNL     1      46.169   8.541  13.250  0.00  0.00    +0.000 A 
ATOM      4  C   UNL     1      47.319   7.842  13.631  0.00  0.00    +0.000 A 
ATOM      5  C   UNL     1      47.539   6.560  13.113  0.00  0.00    +0.000 A 
ATOM      6  C   UNL     1      46.658   6.011  12.180  0.00  0.00    +0.000 A 
ENDROOT
BRANCH   1   7
ATOM      7  C   UNL     1      44.578   6.129  10.755  0.00  0.00    +0.000 C 
BRANCH   7   8
ATOM      8  N   UNL     1      45.310   5.426   9.695  0.00  0.00    +0.000 NA
ATOM      9  H   UNL     1      45.434   6.060   8.908  0.00  0.00    +0.000 HD
BRANCH   8  10
ATOM     10  C   UNL     1      44.615   4.222   9.211  0.00  0.00    +0.000 C 
BRANCH  10  11
ATOM     11  C   UNL     1      45.547   3.260   8.439  0.00  0.00    +0.000 A 
ATOM     12  C   UNL     1      45.584   1.868   8.701  0.00  0.00    +0.000 A 
ATOM     13  C   UNL     1      46.392   1.005   7.962  0.00  0.00    +0.000 A 
ATOM     14  C   UNL     1      47.187   1.511   6.944  0.00  0.00    +0.000 A 
ATOM     15  C   UNL     1      47.193   2.881   6.684  0.00  0.00    +0.000 A 
ATOM     16  C   UNL     1      46.382   3.750   7.423  0.00  0.00    +0.000 A 
ENDBRANCH  10  11
BRANCH  10  18
ATOM     17  N   UNL     1      43.339   2.789  11.223  0.00  0.00    +0.000 NA
ATOM     18  C   UNL     1      43.917   3.438  10.311  0.00  0.00    +0.000 C 
ENDBRANCH  10  18
ENDBRANCH   8  10
ENDBRANCH   7   8
ENDBRANCH   1   7
BRANCH   4  19
ATOM     19  C   UNL     1      48.281   8.436  14.623  0.00  0.00    +0.000 C 
BRANCH  19  20
ATOM     20  N   UNL     1      49.164   7.430  15.152  0.00  0.00    +0.000 N 
ATOM     21  C   UNL     1      49.844   7.638  16.322  0.00  0.00    +0.000 C 
ATOM     22  O   UNL     1      49.699   8.661  16.986  0.00  0.00    +0.000 OA
ATOM     23  H   UNL     1      49.450   6.685  14.524  0.00  0.00    +0.000 HD
BRANCH  21  24
ATOM     24  C   UNL     1      50.710   6.546  16.779  0.00  0.00    +0.000 A 
ATOM     25  C   UNL     1      52.067   6.780  16.962  0.00  0.00    +0.000 A 
ATOM     26  S   UNL     1      52.920   5.426  17.547  0.00  0.00    +0.000 S 
ATOM     27  C   UNL     1      51.516   4.464  17.529  0.00  0.00    +0.000 A 
ATOM     28  N   UNL     1      51.560   3.157  17.902  0.00  0.00    +0.000 NA
ATOM     29  C   UNL     1      50.430   2.538  17.812  0.00  0.00    +0.000 A 
ATOM     30  N   UNL     1      49.259   3.108  17.387  0.00  0.00    +0.000 N 
ATOM     31  C   UNL     1      49.160   4.433  17.031  0.00  0.00    +0.000 A 
ATOM     32  O   UNL     1      48.086   4.923  16.702  0.00  0.00    +0.000 OA
ATOM     33  C   UNL     1      50.406   5.171  17.100  0.00  0.00    +0.000 A 
ATOM     34  H   UNL     1      48.406   2.572  17.349  0.00  0.00    +0.000 HD
ENDBRANCH  21  24
ENDBRANCH  19  20
ENDBRANCH   4  19
TORSDOF 8
ENDMDL
MODEL 5
REMARK VINA RESULT:    -7.388      2.949      3.391
REMARK INTER + INTRA:         -12.102
REMARK INTER:                 -11.269
REMARK INTRA:                  -0.833
REMARK UNBOUND:                -1.258
REMARK  Name = 
REMARK  8 active torsions:
REMARK  status: ('A' for Active; 'I' for Inactive)
REMARK    1  A    between atoms: C_2  and  C_3
REMARK    2  A    between atoms: C_3  and  N_4
REMARK    3  A    between atoms: C_3  and  C_26
REMARK    4  A    between atoms: N_4  and  C_5
REMARK    5  A    between atoms: C_5  and  C_6
REMARK    6  A    between atoms: C_9  and  C_10
REMARK    7  A    between atoms: C_10  and  N_11
REMARK    8  A    between atoms: C_12  and  C_14
REMARK                            x       y       z     vdW  Elec       q    Type
REMARK                         _______ _______ _______ _____ _____    ______ ____
ROOT
ATOM      1  C   UNL     1      45.524   5.994  12.193  0.00  0.00    +0.000 A 
ATOM      2  C   UNL     1      45.998   4.923  12.964  0.00  0.00    +0.000 A 
ATOM      3  C   UNL     1      47.014   5.116  13.902  0.00  0.00    +0.000 A 
ATOM      4  C   UNL     1      47.581   6.383  14.078  0.00  0.00    +0.000 A 
ATOM      5  C   UNL     1      47.149   7.441  13.270  0.00  0.00    +0.000 A 
ATOM      6  C   UNL     1      46.122   7.252  12.344  0.00  0.00    +0.000 A 
ENDROOT
BRANCH   1   7
ATOM      7  C   UNL     1      44.411   5.796  11.192  0.00  0.00    +0.000 C 
BRANCH   7   8
ATOM      8  N   UNL     1      44.942   5.371   9.891  0.00  0.00    +0.000 NA
ATOM      9  H   UNL     1      44.752   6.101   9.207  0.00  0.00    +0.000 HD
BRANCH   8  10
ATOM     10  C   UNL     1      44.343   4.117   9.404  0.00  0.00    +0.000 C 
BRANCH  10  11
ATOM     11  C   UNL     1      45.331   3.263   8.575  0.00  0.00    +0.000 A 
ATOM     12  C   UNL     1      46.205   3.833   7.617  0.00  0.00    +0.000 A 
ATOM     13  C   UNL     1      47.126   3.059   6.913  0.00  0.00    +0.000 A 
ATOM     14  C   UNL     1      47.194   1.693   7.145  0.00  0.00    +0.000 A 
ATOM     15  C   UNL     1      46.325   1.100   8.061  0.00  0.00    +0.000 A 
ATOM     16  C   UNL     1      45.400   1.875   8.770  0.00  0.00    +0.000 A 
ENDBRANCH  10  11
BRANCH  10  18
ATOM     17  N   UNL     1      43.286   2.528  11.426  0.00  0.00    +0.000 NA
ATOM     18  C   UNL     1      43.765   3.249  10.509  0.00  0.00    +0.000 C 
ENDBRANCH  10  18
ENDBRANCH   8  10
ENDBRANCH   7   8
ENDBRANCH   1   7
BRANCH   4  19
ATOM     19  C   UNL     1      48.676   6.596  15.087  0.00  0.00    +0.000 C 
BRANCH  19  20
ATOM     20  N   UNL     1      48.247   7.482  16.137  0.00  0.00    +0.000 N 
ATOM     21  C   UNL     1      48.946   7.570  17.311  0.00  0.00    +0.000 C 
ATOM     22  O   UNL     1      49.982   6.938  17.500  0.00  0.00    +0.000 OA
ATOM     23  H   UNL     1      47.300   7.845  16.081  0.00  0.00    +0.000 HD
BRANCH  21  24
ATOM     24  C   UNL     1      48.430   8.511  18.311  0.00  0.00    +0.000 A 
ATOM     25  C   UNL     1      48.365   9.864  18.007  0.00  0.00    +0.000 A 
ATOM     26  S   UNL     1      47.694  10.812  19.255  0.00  0.00    +0.000 S 
ATOM     27  C   UNL     1      47.514   9.454  20.265  0.00  0.00    +0.000 A 
ATOM     28  N   UNL     1      47.004   9.580  21.519  0.00  0.00    +0.000 NA
ATOM     29  C   UNL     1      46.951   8.476  22.187  0.00  0.00    +0.000 A 
ATOM     30  N   UNL     1      47.358   7.256  21.713  0.00  0.00    +0.000 N 
ATOM     31  C   UNL     1      47.848   7.076  20.441  0.00  0.00    +0.000 A 
ATOM     32  O   UNL     1      48.157   5.962  20.032  0.00  0.00    +0.000 OA
ATOM     33  C   UNL     1      47.943   8.289  19.652  0.00  0.00    +0.000 A 
ATOM     34  H   UNL     1      47.280   6.427  22.282  0.00  0.00    +0.000 HD
ENDBRANCH  21  24
ENDBRANCH  19  20
ENDBRANCH   4  19
TORSDOF 8
ENDMDL
MODEL 6
REMARK VINA RESULT:    -7.124      3.006      8.554
REMARK INTER + INTRA:         -11.714
REMARK INTER:                  -9.782
REMARK INTRA:                  -1.932
REMARK UNBOUND:                -1.258
REMARK  Name = 
REMARK  8 active torsions:
REMARK  status: ('A' for Active; 'I' for Inactive)
REMARK    1  A    between atoms: C_2  and  C_3
REMARK    2  A    between atoms: C_3  and  N_4
REMARK    3  A    between atoms: C_3  and  C_26
REMARK    4  A    between atoms: N_4  and  C_5
REMARK    5  A    between atoms: C_5  and  C_6
REMARK    6  A    between atoms: C_9  and  C_10
REMARK    7  A    between atoms: C_10  and  N_11
REMARK    8  A    between atoms: C_12  and  C_14
REMARK                            x       y       z     vdW  Elec       q    Type
REMARK                         _______ _______ _______ _____ _____    ______ ____
ROOT
ATOM      1  C   UNL     1      48.945   7.952  16.126  0.00  0.00    +0.000 A 
ATOM      2  C   UNL     1      48.182   8.989  15.568  0.00  0.00    +0.000 A 
ATOM      3  C   UNL     1      47.755   8.923  14.241  0.00  0.00    +0.000 A 
ATOM      4  C   UNL     1      48.091   7.823  13.443  0.00  0.00    +0.000 A 
ATOM      5  C   UNL     1      48.900   6.815  13.981  0.00  0.00    +0.000 A 
ATOM      6  C   UNL     1      49.314   6.872  15.313  0.00  0.00    +0.000 A 
ENDROOT
BRANCH   1   7
ATOM      7  C   UNL     1      49.393   8.008  17.566  0.00  0.00    +0.000 C 
BRANCH   7   8
ATOM      8  N   UNL     1      48.300   7.639  18.473  0.00  0.00    +0.000 NA
ATOM      9  H   UNL     1      48.141   8.407  19.123  0.00  0.00    +0.000 HD
BRANCH   8  10
ATOM     10  C   UNL     1      48.582   6.425  19.257  0.00  0.00    +0.000 C 
BRANCH  10  11
ATOM     11  C   UNL     1      48.519   5.134  18.407  0.00  0.00    +0.000 A 
ATOM     12  C   UNL     1      49.656   4.318  18.186  0.00  0.00    +0.000 A 
ATOM     13  C   UNL     1      49.575   3.130  17.460  0.00  0.00    +0.000 A 
ATOM     14  C   UNL     1      48.355   2.730  16.932  0.00  0.00    +0.000 A 
ATOM     15  C   UNL     1      47.227   3.529  17.109  0.00  0.00    +0.000 A 
ATOM     16  C   UNL     1      47.305   4.722  17.838  0.00  0.00    +0.000 A 
ENDBRANCH  10  11
BRANCH  10  18
ATOM     17  N   UNL     1      51.027   6.494  20.578  0.00  0.00    +0.000 NA
ATOM     18  C   UNL     1      49.918   6.463  19.979  0.00  0.00    +0.000 C 
ENDBRANCH  10  18
ENDBRANCH   8  10
ENDBRANCH   7   8
ENDBRANCH   1   7
BRANCH   4  19
ATOM     19  C   UNL     1      47.634   7.748  12.013  0.00  0.00    +0.000 C 
BRANCH  19  20
ATOM     20  N   UNL     1      46.945   6.511  11.755  0.00  0.00    +0.000 N 
ATOM     21  C   UNL     1      45.594   6.406  11.950  0.00  0.00    +0.000 C 
ATOM     22  O   UNL     1      44.912   7.363  12.307  0.00  0.00    +0.000 OA
ATOM     23  H   UNL     1      47.512   5.673  11.663  0.00  0.00    +0.000 HD
BRANCH  21  24
ATOM     24  C   UNL     1      44.988   5.105  11.646  0.00  0.00    +0.000 A 
ATOM     25  C   UNL     1      44.292   4.427  12.638  0.00  0.00    +0.000 A 
ATOM     26  S   UNL     1      43.606   2.959  12.110  0.00  0.00    +0.000 S 
ATOM     27  C   UNL     1      44.257   3.153  10.549  0.00  0.00    +0.000 A 
ATOM     28  N   UNL     1      44.057   2.213   9.588  0.00  0.00    +0.000 NA
ATOM     29  C   UNL     1      44.632   2.471   8.460  0.00  0.00    +0.000 A 
ATOM     30  N   UNL     1      45.384   3.588   8.206  0.00  0.00    +0.000 N 
ATOM     31  C   UNL     1      45.586   4.580   9.136  0.00  0.00    +0.000 A 
ATOM     32  O   UNL     1      46.224   5.590   8.859  0.00  0.00    +0.000 OA
ATOM     33  C   UNL     1      44.973   4.331  10.427  0.00  0.00    +0.000 A 
ATOM     34  H   UNL     1      45.799   3.737   7.298  0.00  0.00    +0.000 HD
ENDBRANCH  21  24
ENDBRANCH  19  20
ENDBRANCH   4  19
TORSDOF 8
ENDMDL
MODEL 7
REMARK VINA RESULT:    -7.024      3.340      8.131
REMARK INTER + INTRA:         -11.567
REMARK INTER:                  -9.905
REMARK INTRA:                  -1.663
REMARK UNBOUND:                -1.258
REMARK  Name = 
REMARK  8 active torsions:
REMARK  status: ('A' for Active; 'I' for Inactive)
REMARK    1  A    between atoms: C_2  and  C_3
REMARK    2  A    between atoms: C_3  and  N_4
REMARK    3  A    between atoms: C_3  and  C_26
REMARK    4  A    between atoms: N_4  and  C_5
REMARK    5  A    between atoms: C_5  and  C_6
REMARK    6  A    between atoms: C_9  and  C_10
REMARK    7  A    between atoms: C_10  and  N_11
REMARK    8  A    between atoms: C_12  and  C_14
REMARK                            x       y       z     vdW  Elec       q    Type
REMARK                         _______ _______ _______ _____ _____    ______ ____
ROOT
ATOM      1  C   UNL     1      48.654   7.661  16.320  0.00  0.00    +0.000 A 
ATOM      2  C   UNL     1      48.735   6.531  15.493  0.00  0.00    +0.000 A 
ATOM      3  C   UNL     1      48.630   6.655  14.107  0.00  0.00    +0.000 A 
ATOM      4  C   UNL     1      48.431   7.910  13.522  0.00  0.00    +0.000 A 
ATOM      5  C   UNL     1      48.293   9.032  14.348  0.00  0.00    +0.000 A 
ATOM      6  C   UNL     1      48.415   8.912  15.734  0.00  0.00    +0.000 A 
ENDROOT
BRANCH   1   7
ATOM      7  C   UNL     1      48.787   7.537  17.819  0.00  0.00    +0.000 C 
BRANCH   7   8
ATOM      8  N   UNL     1      47.726   6.690  18.374  0.00  0.00    +0.000 NA
ATOM      9  H   UNL     1      47.150   7.253  18.996  0.00  0.00    +0.000 HD
BRANCH   8  10
ATOM     10  C   UNL     1      48.243   5.543  19.140  0.00  0.00    +0.000 C 
BRANCH  10  11
ATOM     11  C   UNL     1      48.683   4.367  18.237  0.00  0.00    +0.000 A 
ATOM     12  C   UNL     1      50.023   3.909  18.190  0.00  0.00    +0.000 A 
ATOM     13  C   UNL     1      50.396   2.815  17.410  0.00  0.00    +0.000 A 
ATOM     14  C   UNL     1      49.440   2.154  16.652  0.00  0.00    +0.000 A 
ATOM     15  C   UNL     1      48.119   2.602  16.656  0.00  0.00    +0.000 A 
ATOM     16  C   UNL     1      47.742   3.699  17.439  0.00  0.00    +0.000 A 
ENDBRANCH  10  11
BRANCH  10  18
ATOM     17  N   UNL     1      50.350   6.191  20.834  0.00  0.00    +0.000 NA
ATOM     18  C   UNL     1      49.395   5.898  20.066  0.00  0.00    +0.000 C 
ENDBRANCH  10  18
ENDBRANCH   8  10
ENDBRANCH   7   8
ENDBRANCH   1   7
BRANCH   4  19
ATOM     19  C   UNL     1      48.317   8.048  12.029  0.00  0.00    +0.000 C 
BRANCH  19  20
ATOM     20  N   UNL     1      47.610   6.932  11.459  0.00  0.00    +0.000 N 
ATOM     21  C   UNL     1      46.242   6.909  11.428  0.00  0.00    +0.000 C 
ATOM     22  O   UNL     1      45.566   7.849  11.839  0.00  0.00    +0.000 OA
ATOM     23  H   UNL     1      48.136   6.076  11.310  0.00  0.00    +0.000 HD
BRANCH  21  24
ATOM     24  C   UNL     1      45.620   5.730  10.815  0.00  0.00    +0.000 A 
ATOM     25  C   UNL     1      45.757   5.516   9.450  0.00  0.00    +0.000 A 
ATOM     26  S   UNL     1      45.023   4.078   8.907  0.00  0.00    +0.000 S 
ATOM     27  C   UNL     1      44.452   3.715  10.469  0.00  0.00    +0.000 A 
ATOM     28  N   UNL     1      43.709   2.599  10.699  0.00  0.00    +0.000 NA
ATOM     29  C   UNL     1      43.316   2.462  11.922  0.00  0.00    +0.000 A 
ATOM     30  N   UNL     1      43.603   3.337  12.936  0.00  0.00    +0.000 N 
ATOM     31  C   UNL     1      44.377   4.460  12.757  0.00  0.00    +0.000 A 
ATOM     32  O   UNL     1      44.655   5.195  13.698  0.00  0.00    +0.000 OA
ATOM     33  C   UNL     1      44.832   4.669  11.397  0.00  0.00    +0.000 A 
ATOM     34  H   UNL     1      43.275   3.167  13.875  0.00  0.00    +0.000 HD
ENDBRANCH  21  24
ENDBRANCH  19  20
ENDBRANCH   4  19
TORSDOF 8
ENDMDL
MODEL 8
REMARK VINA RESULT:    -6.580      3.929      5.674
REMARK INTER + INTRA:         -10.916
REMARK INTER:                 -10.110
REMARK INTRA:                  -0.806
REMARK UNBOUND:                -1.258
REMARK  Name = 
REMARK  8 active torsions:
REMARK  status: ('A' for Active; 'I' for Inactive)
REMARK    1  A    between atoms: C_2  and  C_3
REMARK    2  A    between atoms: C_3  and  N_4
REMARK    3  A    between atoms: C_3  and  C_26
REMARK    4  A    between atoms: N_4  and  C_5
REMARK    5  A    between atoms: C_5  and  C_6
REMARK    6  A    between atoms: C_9  and  C_10
REMARK    7  A    between atoms: C_10  and  N_11
REMARK    8  A    between atoms: C_12  and  C_14
REMARK                            x       y       z     vdW  Elec       q    Type
REMARK                         _______ _______ _______ _____ _____    ______ ____
ROOT
ATOM      1  C   UNL     1      45.400   7.382  11.986  0.00  0.00    +0.000 A 
ATOM      2  C   UNL     1      44.427   6.419  12.293  0.00  0.00    +0.000 A 
ATOM      3  C   UNL     1      44.749   5.306  13.071  0.00  0.00    +0.000 A 
ATOM      4  C   UNL     1      46.053   5.130  13.548  0.00  0.00    +0.000 A 
ATOM      5  C   UNL     1      47.038   6.060  13.195  0.00  0.00    +0.000 A 
ATOM      6  C   UNL     1      46.714   7.182  12.431  0.00  0.00    +0.000 A 
ENDROOT
BRANCH   1   7
ATOM      7  C   UNL     1      45.054   8.599  11.162  0.00  0.00    +0.000 C 
BRANCH   7   8
ATOM      8  N   UNL     1      43.601   8.741  11.016  0.00  0.00    +0.000 NA
ATOM      9  H   UNL     1      43.305   8.233  10.185  0.00  0.00    +0.000 HD
BRANCH   8  10
ATOM     10  C   UNL     1      43.167  10.142  10.878  0.00  0.00    +0.000 C 
BRANCH  10  11
ATOM     11  C   UNL     1      43.883  10.881   9.724  0.00  0.00    +0.000 A 
ATOM     12  C   UNL     1      44.932  11.805   9.952  0.00  0.00    +0.000 A 
ATOM     13  C   UNL     1      45.603  12.426   8.900  0.00  0.00    +0.000 A 
ATOM     14  C   UNL     1      45.239  12.143   7.591  0.00  0.00    +0.000 A 
ATOM     15  C   UNL     1      44.190  11.260   7.338  0.00  0.00    +0.000 A 
ATOM     16  C   UNL     1      43.515  10.634   8.392  0.00  0.00    +0.000 A 
ENDBRANCH  10  11
BRANCH  10  18
ATOM     17  N   UNL     1      40.422  10.430  10.544  0.00  0.00    +0.000 NA
ATOM     18  C   UNL     1      41.667  10.299  10.695  0.00  0.00    +0.000 C 
ENDBRANCH  10  18
ENDBRANCH   8  10
ENDBRANCH   7   8
ENDBRANCH   1   7
BRANCH   4  19
ATOM     19  C   UNL     1      46.405   3.931  14.386  0.00  0.00    +0.000 C 
BRANCH  19  20
ATOM     20  N   UNL     1      47.535   4.207  15.234  0.00  0.00    +0.000 N 
ATOM     21  C   UNL     1      47.503   3.900  16.567  0.00  0.00    +0.000 C 
ATOM     22  O   UNL     1      46.538   3.343  17.084  0.00  0.00    +0.000 OA
ATOM     23  H   UNL     1      48.241   4.843  14.875  0.00  0.00    +0.000 HD
BRANCH  21  24
ATOM     24  C   UNL     1      48.710   4.212  17.340  0.00  0.00    +0.000 A 
ATOM     25  C   UNL     1      48.768   5.390  18.073  0.00  0.00    +0.000 A 
ATOM     26  S   UNL     1      50.214   5.576  18.955  0.00  0.00    +0.000 S 
ATOM     27  C   UNL     1      50.836   4.112  18.349  0.00  0.00    +0.000 A 
ATOM     28  N   UNL     1      52.077   3.681  18.702  0.00  0.00    +0.000 NA
ATOM     29  C   UNL     1      52.435   2.571  18.146  0.00  0.00    +0.000 A 
ATOM     30  N   UNL     1      51.662   1.851  17.274  0.00  0.00    +0.000 N 
ATOM     31  C   UNL     1      50.390   2.230  16.914  0.00  0.00    +0.000 A 
ATOM     32  O   UNL     1      49.707   1.536  16.169  0.00  0.00    +0.000 OA
ATOM     33  C   UNL     1      49.945   3.480  17.499  0.00  0.00    +0.000 A 
ATOM     34  H   UNL     1      51.996   0.983  16.881  0.00  0.00    +0.000 HD
ENDBRANCH  21  24
ENDBRANCH  19  20
ENDBRANCH   4  19
TORSDOF 8
ENDMDL
MODEL 9
REMARK VINA RESULT:    -6.486      5.644      7.843
REMARK INTER + INTRA:         -10.778
REMARK INTER:                  -9.501
REMARK INTRA:                  -1.277
REMARK UNBOUND:                -1.258
REMARK  Name = 
REMARK  8 active torsions:
REMARK  status: ('A' for Active; 'I' for Inactive)
REMARK    1  A    between atoms: C_2  and  C_3
REMARK    2  A    between atoms: C_3  and  N_4
REMARK    3  A    between atoms: C_3  and  C_26
REMARK    4  A    between atoms: N_4  and  C_5
REMARK    5  A    between atoms: C_5  and  C_6
REMARK    6  A    between atoms: C_9  and  C_10
REMARK    7  A    between atoms: C_10  and  N_11
REMARK    8  A    between atoms: C_12  and  C_14
REMARK                            x       y       z     vdW  Elec       q    Type
REMARK                         _______ _______ _______ _____ _____    ______ ____
ROOT
ATOM      1  C   UNL     1      48.855   7.222  13.502  0.00  0.00    +0.000 A 
ATOM      2  C   UNL     1      49.971   7.732  14.182  0.00  0.00    +0.000 A 
ATOM      3  C   UNL     1      50.983   8.398  13.488  0.00  0.00    +0.000 A 
ATOM      4  C   UNL     1      50.903   8.557  12.100  0.00  0.00    +0.000 A 
ATOM      5  C   UNL     1      49.818   8.000  11.413  0.00  0.00    +0.000 A 
ATOM      6  C   UNL     1      48.797   7.349  12.107  0.00  0.00    +0.000 A 
ENDROOT
BRANCH   1   7
ATOM      7  C   UNL     1      47.747   6.519  14.248  0.00  0.00    +0.000 C 
BRANCH   7   8
ATOM      8  N   UNL     1      46.498   6.538  13.478  0.00  0.00    +0.000 NA
ATOM      9  H   UNL     1      45.839   7.163  13.938  0.00  0.00    +0.000 HD
BRANCH   8  10
ATOM     10  C   UNL     1      45.870   5.211  13.362  0.00  0.00    +0.000 C 
BRANCH  10  11
ATOM     11  C   UNL     1      45.536   4.830  11.901  0.00  0.00    +0.000 A 
ATOM     12  C   UNL     1      44.893   3.613  11.564  0.00  0.00    +0.000 A 
ATOM     13  C   UNL     1      44.552   3.306  10.248  0.00  0.00    +0.000 A 
ATOM     14  C   UNL     1      44.849   4.204   9.233  0.00  0.00    +0.000 A 
ATOM     15  C   UNL     1      45.509   5.396   9.532  0.00  0.00    +0.000 A 
ATOM     16  C   UNL     1      45.851   5.708  10.853  0.00  0.00    +0.000 A 
ENDBRANCH  10  11
BRANCH  10  18
ATOM     17  N   UNL     1      47.377   3.163  14.486  0.00  0.00    +0.000 NA
ATOM     18  C   UNL     1      46.694   4.091  13.976  0.00  0.00    +0.000 C 
ENDBRANCH  10  18
ENDBRANCH   8  10
ENDBRANCH   7   8
ENDBRANCH   1   7
BRANCH   4  19
ATOM     19  C   UNL     1      51.991   9.273  11.349  0.00  0.00    +0.000 C 
BRANCH  19  20
ATOM     20  N   UNL     1      52.233   8.653  10.073  0.00  0.00    +0.000 N 
ATOM     21  C   UNL     1      53.315   9.008   9.314  0.00  0.00    +0.000 C 
ATOM     22  O   UNL     1      54.142   9.829   9.703  0.00  0.00    +0.000 OA
ATOM     23  H   UNL     1      51.465   8.138   9.653  0.00  0.00    +0.000 HD
BRANCH  21  24
ATOM     24  C   UNL     1      53.476   8.308   8.035  0.00  0.00    +0.000 A 
ATOM     25  C   UNL     1      53.507   9.039   6.855  0.00  0.00    +0.000 A 
ATOM     26  S   UNL     1      53.753   8.083   5.465  0.00  0.00    +0.000 S 
ATOM     27  C   UNL     1      53.776   6.652   6.387  0.00  0.00    +0.000 A 
ATOM     28  N   UNL     1      53.933   5.440   5.791  0.00  0.00    +0.000 NA
ATOM     29  C   UNL     1      53.901   4.437   6.604  0.00  0.00    +0.000 A 
ATOM     30  N   UNL     1      53.733   4.537   7.960  0.00  0.00    +0.000 N 
ATOM     31  C   UNL     1      53.604   5.742   8.609  0.00  0.00    +0.000 A 
ATOM     32  O   UNL     1      53.504   5.797   9.830  0.00  0.00    +0.000 OA
ATOM     33  C   UNL     1      53.617   6.902   7.739  0.00  0.00    +0.000 A 
ATOM     34  H   UNL     1      53.728   3.714   8.543  0.00  0.00    +0.000 HD
ENDBRANCH  21  24
ENDBRANCH  19  20
ENDBRANCH   4  19
TORSDOF 8
ENDMDL
