MODEL 1
REMARK VINA RESULT:    -8.182      0.000      0.000
REMARK INTER + INTRA:         -12.265
REMARK INTER:                 -11.530
REMARK INTRA:                  -0.735
REMARK UNBOUND:                -0.735
REMARK  Name = 
REMARK  7 active torsions:
REMARK  status: ('A' for Active; 'I' for Inactive)
REMARK    1  A    between atoms: C_2  and  C_20
REMARK    2  A    between atoms: N_3  and  C_4
REMARK    3  A    between atoms: C_4  and  C_5
REMARK    4  A    between atoms: C_8  and  C_9
REMARK    5  A    between atoms: C_9  and  N_10
REMARK    6  A    between atoms: N_10  and  C_11
REMARK    7  A    between atoms: C_11  and  C_12
REMARK                            x       y       z     vdW  Elec       q    Type
REMARK                         _______ _______ _______ _____ _____    ______ ____
ROOT
ATOM      1  C   UNL     1      46.844   5.831  13.084  0.00  0.00    +0.000 A 
ATOM      2  C   UNL     1      46.658   6.494  11.864  0.00  0.00    +0.000 A 
ATOM      3  C   UNL     1      45.593   6.150  11.029  0.00  0.00    +0.000 A 
ATOM      4  C   UNL     1      44.693   5.138  11.394  0.00  0.00    +0.000 A 
ATOM      5  C   UNL     1      44.870   4.492  12.624  0.00  0.00    +0.000 A 
ATOM      6  C   UNL     1      45.933   4.839  13.463  0.00  0.00    +0.000 A 
ENDROOT
BRANCH   1   7
ATOM      7  C   UNL     1      48.005   6.182  13.971  0.00  0.00    +0.000 C 
BRANCH   7  10
ATOM      8  O   UNL     1      49.948   6.140  15.933  0.00  0.00    +0.000 OA
ATOM      9  C   UNL     1      48.793   5.869  16.256  0.00  0.00    +0.000 C 
ATOM     10  N   UNL     1      47.760   5.851  15.348  0.00  0.00    +0.000 N 
ATOM     11  H   UNL     1      46.831   5.635  15.692  0.00  0.00    +0.000 HD
BRANCH   9  12
ATOM     12  C   UNL     1      48.411   5.550  17.636  0.00  0.00    +0.000 A 
ATOM     13  N   UNL     1      48.331   4.282  18.101  0.00  0.00    +0.000 NA
ATOM     14  N   UNL     1      47.968   4.445  19.395  0.00  0.00    +0.000 N 
ATOM     15  C   UNL     1      47.795   5.744  19.766  0.00  0.00    +0.000 A 
ATOM     16  N   UNL     1      47.426   6.191  20.983  0.00  0.00    +0.000 NA
ATOM     17  C   UNL     1      47.331   7.543  21.032  0.00  0.00    +0.000 A 
ATOM     18  C   UNL     1      47.580   8.417  19.980  0.00  0.00    +0.000 A 
ATOM     19  C   UNL     1      47.968   7.895  18.746  0.00  0.00    +0.000 A 
ATOM     20  C   UNL     1      48.075   6.499  18.641  0.00  0.00    +0.000 A 
ATOM     21  H   UNL     1      47.847   3.630  19.984  0.00  0.00    +0.000 HD
ENDBRANCH   9  12
ENDBRANCH   7  10
ENDBRANCH   1   7
BRANCH   4  22
ATOM     22  C   UNL     1      43.550   4.754  10.477  0.00  0.00    +0.000 C 
BRANCH  22  23
ATOM     23  N   UNL     1      44.057   4.231   9.215  0.00  0.00    +0.000 NA
ATOM     24  H   UNL     1      44.882   4.762   8.927  0.00  0.00    +0.000 HD
BRANCH  23  25
ATOM     25  C   UNL     1      44.450   2.816   9.313  0.00  0.00    +0.000 C 
BRANCH  25  26
ATOM     26  C   UNL     1      45.590   2.475   8.360  0.00  0.00    +0.000 A 
ATOM     27  N   UNL     1      46.012   1.189   8.333  0.00  0.00    +0.000 NA
ATOM     28  C   UNL     1      47.069   0.923   7.544  0.00  0.00    +0.000 A 
ATOM     29  C   UNL     1      47.704   1.872   6.779  0.00  0.00    +0.000 A 
ATOM     30  C   UNL     1      47.186   3.143   6.858  0.00  0.00    +0.000 A 
ATOM     31  N   UNL     1      46.134   3.473   7.631  0.00  0.00    +0.000 NA
ENDBRANCH  25  26
ENDBRANCH  23  25
ENDBRANCH  22  23
ENDBRANCH   4  22
TORSDOF 7
ENDMDL
MODEL 2
REMARK VINA RESULT:    -7.840      1.783      2.629
REMARK INTER + INTRA:         -11.783
REMARK INTER:                 -11.052
REMARK INTRA:                  -0.731
REMARK UNBOUND:                -0.735
REMARK  Name = 
REMARK  7 active torsions:
REMARK  status: ('A' for Active; 'I' for Inactive)
REMARK    1  A    between atoms: C_2  and  C_20
REMARK    2  A    between atoms: N_3  and  C_4
REMARK    3  A    between atoms: C_4  and  C_5
REMARK    4  A    between atoms: C_8  and  C_9
REMARK    5  A    between atoms: C_9  and  N_10
REMARK    6  A    between atoms: N_10  and  C_11
REMARK    7  A    between atoms: C_11  and  C_12
REMARK                            x       y       z     vdW  Elec       q    Type
REMARK                         _______ _______ _______ _____ _____    ______ ____
ROOT
ATOM      1  C   UNL     1      46.326   7.405  12.821  0.00  0.00    +0.000 A 
ATOM      2  C   UNL     1      46.463   6.011  12.823  0.00  0.00    +0.000 A 
ATOM      3  C   UNL     1      45.562   5.212  12.117  0.00  0.00    +0.000 A 
ATOM      4  C   UNL     1      44.506   5.787  11.394  0.00  0.00    +0.000 A 
ATOM      5  C   UNL     1      44.385   7.183  11.377  0.00  0.00    +0.000 A 
ATOM      6  C   UNL     1      45.290   7.984  12.079  0.00  0.00    +0.000 A 
ENDROOT
BRANCH   1   7
ATOM      7  C   UNL     1      47.279   8.265  13.602  0.00  0.00    +0.000 C 
BRANCH   7  10
ATOM      8  O   UNL     1      49.674   6.940  13.971  0.00  0.00    +0.000 OA
ATOM      9  C   UNL     1      48.904   7.022  14.928  0.00  0.00    +0.000 C 
ATOM     10  N   UNL     1      47.684   7.650  14.837  0.00  0.00    +0.000 N 
ATOM     11  H   UNL     1      47.110   7.694  15.672  0.00  0.00    +0.000 HD
BRANCH   9  12
ATOM     12  C   UNL     1      49.219   6.467  16.248  0.00  0.00    +0.000 A 
ATOM     13  N   UNL     1      50.070   7.065  17.113  0.00  0.00    +0.000 NA
ATOM     14  N   UNL     1      50.057   6.240  18.187  0.00  0.00    +0.000 N 
ATOM     15  C   UNL     1      49.260   5.145  18.038  0.00  0.00    +0.000 A 
ATOM     16  N   UNL     1      49.071   4.160  18.939  0.00  0.00    +0.000 NA
ATOM     17  C   UNL     1      48.224   3.202  18.489  0.00  0.00    +0.000 A 
ATOM     18  C   UNL     1      47.591   3.188  17.251  0.00  0.00    +0.000 A 
ATOM     19  C   UNL     1      47.820   4.241  16.364  0.00  0.00    +0.000 A 
ATOM     20  C   UNL     1      48.694   5.256  16.781  0.00  0.00    +0.000 A 
ATOM     21  H   UNL     1      50.617   6.471  18.998  0.00  0.00    +0.000 HD
ENDBRANCH   9  12
ENDBRANCH   7  10
ENDBRANCH   1   7
BRANCH   4  22
ATOM     22  C   UNL     1      43.519   4.916  10.645  0.00  0.00    +0.000 C 
BRANCH  22  23
ATOM     23  N   UNL     1      44.069   4.506   9.359  0.00  0.00    +0.000 NA
ATOM     24  H   UNL     1      44.916   5.042   9.159  0.00  0.00    +0.000 HD
BRANCH  23  25
ATOM     25  C   UNL     1      44.429   3.078   9.333  0.00  0.00    +0.000 C 
BRANCH  25  26
ATOM     26  C   UNL     1      45.505   2.782   8.295  0.00  0.00    +0.000 A 
ATOM     27  N   UNL     1      45.731   3.725   7.350  0.00  0.00    +0.000 NA
ATOM     28  C   UNL     1      46.629   3.414   6.398  0.00  0.00    +0.000 A 
ATOM     29  C   UNL     1      47.313   2.222   6.359  0.00  0.00    +0.000 A 
ATOM     30  C   UNL     1      47.029   1.341   7.375  0.00  0.00    +0.000 A 
ATOM     31  N   UNL     1      46.139   1.592   8.353  0.00  0.00    +0.000 NA
ENDBRANCH  25  26
ENDBRANCH  23  25
ENDBRANCH  22  23
ENDBRANCH   4  22
TORSDOF 7
ENDMDL
MODEL 3
REMARK VINA RESULT:    -7.712      3.748      5.783
REMARK INTER + INTRA:         -11.603
REMARK INTER:                 -10.681
REMARK INTRA:                  -0.922
REMARK UNBOUND:                -0.735
REMARK  Name = 
REMARK  7 active torsions:
REMARK  status: ('A' for Active; 'I' for Inactive)
REMARK    1  A    between atoms: C_2  and  C_20
REMARK    2  A    between atoms: N_3  and  C_4
REMARK    3  A    between atoms: C_4  and  C_5
REMARK    4  A    between atoms: C_8  and  C_9
REMARK    5  A    between atoms: C_9  and  N_10
REMARK    6  A    between atoms: N_10  and  C_11
REMARK    7  A    between atoms: C_11  and  C_12
REMARK                            x       y       z     vdW  Elec       q    Type
REMARK                         _______ _______ _______ _____ _____    ______ ____
ROOT
ATOM      1  C   UNL     1      46.306   5.545  13.328  0.00  0.00    +0.000 A 
ATOM      2  C   UNL     1      45.046   5.997  12.915  0.00  0.00    +0.000 A 
ATOM      3  C   UNL     1      44.117   5.104  12.376  0.00  0.00    +0.000 A 
ATOM      4  C   UNL     1      44.426   3.743  12.239  0.00  0.00    +0.000 A 
ATOM      5  C   UNL     1      45.679   3.291  12.673  0.00  0.00    +0.000 A 
ATOM      6  C   UNL     1      46.607   4.182  13.217  0.00  0.00    +0.000 A 
ENDROOT
BRANCH   1   7
ATOM      7  C   UNL     1      47.316   6.508  13.883  0.00  0.00    +0.000 C 
BRANCH   7  10
ATOM      8  O   UNL     1      48.194   7.984  11.719  0.00  0.00    +0.000 OA
ATOM      9  C   UNL     1      47.438   8.527  12.522  0.00  0.00    +0.000 C 
ATOM     10  N   UNL     1      46.959   7.878  13.636  0.00  0.00    +0.000 N 
ATOM     11  H   UNL     1      46.325   8.386  14.245  0.00  0.00    +0.000 HD
BRANCH   9  12
ATOM     12  C   UNL     1      46.973   9.909  12.362  0.00  0.00    +0.000 A 
ATOM     13  N   UNL     1      47.748  10.982  12.641  0.00  0.00    +0.000 NA
ATOM     14  N   UNL     1      46.947  12.033  12.346  0.00  0.00    +0.000 N 
ATOM     15  C   UNL     1      45.703  11.682  11.915  0.00  0.00    +0.000 A 
ATOM     16  N   UNL     1      44.707  12.520  11.566  0.00  0.00    +0.000 NA
ATOM     17  C   UNL     1      43.583  11.861  11.189  0.00  0.00    +0.000 A 
ATOM     18  C   UNL     1      43.424  10.480  11.144  0.00  0.00    +0.000 A 
ATOM     19  C   UNL     1      44.495   9.664  11.509  0.00  0.00    +0.000 A 
ATOM     20  C   UNL     1      45.680  10.299  11.912  0.00  0.00    +0.000 A 
ATOM     21  H   UNL     1      47.301  12.975  12.460  0.00  0.00    +0.000 HD
ENDBRANCH   9  12
ENDBRANCH   7  10
ENDBRANCH   1   7
BRANCH   4  22
ATOM     22  C   UNL     1      43.423   2.781  11.637  0.00  0.00    +0.000 C 
BRANCH  22  23
ATOM     23  N   UNL     1      43.966   2.156  10.438  0.00  0.00    +0.000 NA
ATOM     24  H   UNL     1      43.269   1.531  10.028  0.00  0.00    +0.000 HD
BRANCH  23  25
ATOM     25  C   UNL     1      44.338   3.143   9.411  0.00  0.00    +0.000 C 
BRANCH  25  26
ATOM     26  C   UNL     1      45.467   2.639   8.520  0.00  0.00    +0.000 A 
ATOM     27  N   UNL     1      46.050   3.537   7.690  0.00  0.00    +0.000 NA
ATOM     28  C   UNL     1      46.991   3.057   6.857  0.00  0.00    +0.000 A 
ATOM     29  C   UNL     1      47.381   1.739   6.829  0.00  0.00    +0.000 A 
ATOM     30  C   UNL     1      46.746   0.913   7.725  0.00  0.00    +0.000 A 
ATOM     31  N   UNL     1      45.794   1.331   8.581  0.00  0.00    +0.000 NA
ENDBRANCH  25  26
ENDBRANCH  23  25
ENDBRANCH  22  23
ENDBRANCH   4  22
TORSDOF 7
ENDMDL
MODEL 4
REMARK VINA RESULT:    -7.383      2.842      9.241
REMARK INTER + INTRA:         -11.140
REMARK INTER:                 -10.302
REMARK INTRA:                  -0.838
REMARK UNBOUND:                -0.735
REMARK  Name = 
REMARK  7 active torsions:
REMARK  status: ('A' for Active; 'I' for Inactive)
REMARK    1  A    between atoms: C_2  and  C_20
REMARK    2  A    between atoms: N_3  and  C_4
REMARK    3  A    between atoms: C_4  and  C_5
REMARK    4  A    between atoms: C_8  and  C_9
REMARK    5  A    between atoms: C_9  and  N_10
REMARK    6  A    between atoms: N_10  and  C_11
REMARK    7  A    between atoms: C_11  and  C_12
REMARK                            x       y       z     vdW  Elec       q    Type
REMARK                         _______ _______ _______ _____ _____    ______ ____
ROOT
ATOM      1  C   UNL     1      46.400   7.444  12.236  0.00  0.00    +0.000 A 
ATOM      2  C   UNL     1      46.240   8.413  13.234  0.00  0.00    +0.000 A 
ATOM      3  C   UNL     1      47.313   8.766  14.056  0.00  0.00    +0.000 A 
ATOM      4  C   UNL     1      48.568   8.159  13.897  0.00  0.00    +0.000 A 
ATOM      5  C   UNL     1      48.730   7.206  12.883  0.00  0.00    +0.000 A 
ATOM      6  C   UNL     1      47.658   6.856  12.058  0.00  0.00    +0.000 A 
ENDROOT
BRANCH   1   7
ATOM      7  C   UNL     1      45.240   7.044  11.370  0.00  0.00    +0.000 C 
BRANCH   7  10
ATOM      8  O   UNL     1      43.127   5.473  10.534  0.00  0.00    +0.000 OA
ATOM      9  C   UNL     1      44.263   5.008  10.453  0.00  0.00    +0.000 C 
ATOM     10  N   UNL     1      45.376   5.708  10.856  0.00  0.00    +0.000 N 
ATOM     11  H   UNL     1      46.281   5.265  10.743  0.00  0.00    +0.000 HD
BRANCH   9  12
ATOM     12  C   UNL     1      44.534   3.671   9.914  0.00  0.00    +0.000 A 
ATOM     13  N   UNL     1      43.939   2.552  10.388  0.00  0.00    +0.000 NA
ATOM     14  N   UNL     1      44.455   1.569   9.613  0.00  0.00    +0.000 N 
ATOM     15  C   UNL     1      45.358   2.004   8.690  0.00  0.00    +0.000 A 
ATOM     16  N   UNL     1      46.029   1.244   7.802  0.00  0.00    +0.000 NA
ATOM     17  C   UNL     1      46.865   1.973   7.022  0.00  0.00    +0.000 A 
ATOM     18  C   UNL     1      47.044   3.350   7.085  0.00  0.00    +0.000 A 
ATOM     19  C   UNL     1      46.314   4.085   8.019  0.00  0.00    +0.000 A 
ATOM     20  C   UNL     1      45.438   3.375   8.854  0.00  0.00    +0.000 A 
ATOM     21  H   UNL     1      44.158   0.613   9.760  0.00  0.00    +0.000 HD
ENDBRANCH   9  12
ENDBRANCH   7  10
ENDBRANCH   1   7
BRANCH   4  22
ATOM     22  C   UNL     1      49.724   8.531  14.801  0.00  0.00    +0.000 C 
BRANCH  22  23
ATOM     23  N   UNL     1      50.404   7.335  15.283  0.00  0.00    +0.000 NA
ATOM     24  H   UNL     1      51.411   7.504  15.325  0.00  0.00    +0.000 HD
BRANCH  23  25
ATOM     25  C   UNL     1      49.962   6.944  16.632  0.00  0.00    +0.000 C 
BRANCH  25  26
ATOM     26  C   UNL     1      49.384   5.534  16.653  0.00  0.00    +0.000 A 
ATOM     27  N   UNL     1      48.177   5.350  16.065  0.00  0.00    +0.000 NA
ATOM     28  C   UNL     1      47.648   4.117  16.161  0.00  0.00    +0.000 A 
ATOM     29  C   UNL     1      48.270   3.070  16.798  0.00  0.00    +0.000 A 
ATOM     30  C   UNL     1      49.500   3.353  17.343  0.00  0.00    +0.000 A 
ATOM     31  N   UNL     1      50.081   4.566  17.284  0.00  0.00    +0.000 NA
ENDBRANCH  25  26
ENDBRANCH  23  25
ENDBRANCH  22  23
ENDBRANCH   4  22
TORSDOF 7
ENDMDL
MODEL 5
REMARK VINA RESULT:    -6.808      2.313      2.749
REMARK INTER + INTRA:         -10.329
REMARK INTER:                  -9.652
REMARK INTRA:                  -0.677
REMARK UNBOUND:                -0.735
REMARK  Name = 
REMARK  7 active torsions:
REMARK  status: ('A' for Active; 'I' for Inactive)
REMARK    1  A    between atoms: C_2  and  C_20
REMARK    2  A    between atoms: N_3  and  C_4
REMARK    3  A    between atoms: C_4  and  C_5
REMARK    4  A    between atoms: C_8  and  C_9
REMARK    5  A    between atoms: C_9  and  N_10
REMARK    6  A    between atoms: N_10  and  C_11
REMARK    7  A    between atoms: C_11  and  C_12
REMARK                            x       y       z     vdW  Elec       q    Type
REMARK                         _______ _______ _______ _____ _____    ______ ____
ROOT
ATOM      1  C   UNL     1      45.643   7.075  12.369  0.00  0.00    +0.000 A 
ATOM      2  C   UNL     1      44.557   6.455  12.999  0.00  0.00    +0.000 A 
ATOM      3  C   UNL     1      43.946   5.341  12.420  0.00  0.00    +0.000 A 
ATOM      4  C   UNL     1      44.407   4.823  11.200  0.00  0.00    +0.000 A 
ATOM      5  C   UNL     1      45.507   5.433  10.584  0.00  0.00    +0.000 A 
ATOM      6  C   UNL     1      46.122   6.545  11.165  0.00  0.00    +0.000 A 
ENDROOT
BRANCH   1   7
ATOM      7  C   UNL     1      46.285   8.290  12.977  0.00  0.00    +0.000 C 
BRANCH   7  10
ATOM      8  O   UNL     1      48.591   9.661  13.632  0.00  0.00    +0.000 OA
ATOM      9  C   UNL     1      48.261   8.712  14.341  0.00  0.00    +0.000 C 
ATOM     10  N   UNL     1      47.137   7.961  14.087  0.00  0.00    +0.000 N 
ATOM     11  H   UNL     1      46.919   7.204  14.726  0.00  0.00    +0.000 HD
BRANCH   9  12
ATOM     12  C   UNL     1      49.028   8.300  15.521  0.00  0.00    +0.000 A 
ATOM     13  N   UNL     1      50.047   7.413  15.463  0.00  0.00    +0.000 NA
ATOM     14  N   UNL     1      50.471   7.336  16.746  0.00  0.00    +0.000 N 
ATOM     15  C   UNL     1      49.763   8.112  17.614  0.00  0.00    +0.000 A 
ATOM     16  N   UNL     1      49.961   8.218  18.943  0.00  0.00    +0.000 NA
ATOM     17  C   UNL     1      49.082   9.067  19.532  0.00  0.00    +0.000 A 
ATOM     18  C   UNL     1      48.076   9.776  18.886  0.00  0.00    +0.000 A 
ATOM     19  C   UNL     1      47.926   9.631  17.506  0.00  0.00    +0.000 A 
ATOM     20  C   UNL     1      48.808   8.759  16.850  0.00  0.00    +0.000 A 
ATOM     21  H   UNL     1      51.251   6.733  16.977  0.00  0.00    +0.000 HD
ENDBRANCH   9  12
ENDBRANCH   7  10
ENDBRANCH   1   7
BRANCH   4  22
ATOM     22  C   UNL     1      43.730   3.626  10.565  0.00  0.00    +0.000 C 
BRANCH  22  23
ATOM     23  N   UNL     1      44.651   2.500  10.482  0.00  0.00    +0.000 NA
ATOM     24  H   UNL     1      44.449   1.832  11.229  0.00  0.00    +0.000 HD
BRANCH  23  25
ATOM     25  C   UNL     1      44.542   1.781   9.201  0.00  0.00    +0.000 C 
BRANCH  25  26
ATOM     26  C   UNL     1      45.744   2.039   8.301  0.00  0.00    +0.000 A 
ATOM     27  N   UNL     1      45.882   3.287   7.794  0.00  0.00    +0.000 NA
ATOM     28  C   UNL     1      46.904   3.476   6.940  0.00  0.00    +0.000 A 
ATOM     29  C   UNL     1      47.792   2.488   6.587  0.00  0.00    +0.000 A 
ATOM     30  C   UNL     1      47.580   1.263   7.172  0.00  0.00    +0.000 A 
ATOM     31  N   UNL     1      46.574   1.010   8.031  0.00  0.00    +0.000 NA
ENDBRANCH  25  26
ENDBRANCH  23  25
ENDBRANCH  22  23
ENDBRANCH   4  22
TORSDOF 7
ENDMDL
MODEL 6
REMARK VINA RESULT:    -6.672      2.473      8.954
REMARK INTER + INTRA:         -10.137
REMARK INTER:                  -9.080
REMARK INTRA:                  -1.057
REMARK UNBOUND:                -0.735
REMARK  Name = 
REMARK  7 active torsions:
REMARK  status: ('A' for Active; 'I' for Inactive)
REMARK    1  A    between atoms: C_2  and  C_20
REMARK    2  A    between atoms: N_3  and  C_4
REMARK    3  A    between atoms: C_4  and  C_5
REMARK    4  A    between atoms: C_8  and  C_9
REMARK    5  A    between atoms: C_9  and  N_10
REMARK    6  A    between atoms: N_10  and  C_11
REMARK    7  A    between atoms: C_11  and  C_12
REMARK                            x       y       z     vdW  Elec       q    Type
REMARK                         _______ _______ _______ _____ _____    ______ ____
ROOT
ATOM      1  C   UNL     1      48.278   7.911  13.602  0.00  0.00    +0.000 A 
ATOM      2  C   UNL     1      49.504   7.254  13.761  0.00  0.00    +0.000 A 
ATOM      3  C   UNL     1      50.198   7.335  14.970  0.00  0.00    +0.000 A 
ATOM      4  C   UNL     1      49.682   8.074  16.045  0.00  0.00    +0.000 A 
ATOM      5  C   UNL     1      48.444   8.712  15.889  0.00  0.00    +0.000 A 
ATOM      6  C   UNL     1      47.747   8.627  14.681  0.00  0.00    +0.000 A 
ENDROOT
BRANCH   1   7
ATOM      7  C   UNL     1      47.543   7.847  12.293  0.00  0.00    +0.000 C 
BRANCH   7  10
ATOM      8  O   UNL     1      44.999   6.994  12.949  0.00  0.00    +0.000 OA
ATOM      9  C   UNL     1      45.744   6.204  12.371  0.00  0.00    +0.000 C 
ATOM     10  N   UNL     1      47.031   6.532  12.017  0.00  0.00    +0.000 N 
ATOM     11  H   UNL     1      47.581   5.833  11.528  0.00  0.00    +0.000 HD
BRANCH   9  12
ATOM     12  C   UNL     1      45.327   4.847  12.004  0.00  0.00    +0.000 A 
ATOM     13  N   UNL     1      45.038   3.893  12.919  0.00  0.00    +0.000 NA
ATOM     14  N   UNL     1      44.693   2.825  12.162  0.00  0.00    +0.000 N 
ATOM     15  C   UNL     1      44.767   3.047  10.819  0.00  0.00    +0.000 A 
ATOM     16  N   UNL     1      44.492   2.161   9.842  0.00  0.00    +0.000 NA
ATOM     17  C   UNL     1      44.670   2.684   8.603  0.00  0.00    +0.000 A 
ATOM     18  C   UNL     1      45.083   3.980   8.317  0.00  0.00    +0.000 A 
ATOM     19  C   UNL     1      45.343   4.855   9.372  0.00  0.00    +0.000 A 
ATOM     20  C   UNL     1      45.179   4.360  10.675  0.00  0.00    +0.000 A 
ATOM     21  H   UNL     1      44.417   1.963  12.614  0.00  0.00    +0.000 HD
ENDBRANCH   9  12
ENDBRANCH   7  10
ENDBRANCH   1   7
BRANCH   4  22
ATOM     22  C   UNL     1      50.445   8.175  17.349  0.00  0.00    +0.000 C 
BRANCH  22  23
ATOM     23  N   UNL     1      49.612   7.753  18.467  0.00  0.00    +0.000 NA
ATOM     24  H   UNL     1      48.637   7.692  18.167  0.00  0.00    +0.000 HD
BRANCH  23  25
ATOM     25  C   UNL     1      50.000   6.430  18.986  0.00  0.00    +0.000 C 
BRANCH  25  26
ATOM     26  C   UNL     1      49.208   5.307  18.330  0.00  0.00    +0.000 A 
ATOM     27  N   UNL     1      47.889   5.524  18.111  0.00  0.00    +0.000 NA
ATOM     28  C   UNL     1      47.190   4.494  17.601  0.00  0.00    +0.000 A 
ATOM     29  C   UNL     1      47.748   3.276  17.292  0.00  0.00    +0.000 A 
ATOM     30  C   UNL     1      49.097   3.163  17.530  0.00  0.00    +0.000 A 
ATOM     31  N   UNL     1      49.850   4.155  18.041  0.00  0.00    +0.000 NA
ENDBRANCH  25  26
ENDBRANCH  23  25
ENDBRANCH  22  23
ENDBRANCH   4  22
TORSDOF 7
ENDMDL
MODEL 7
REMARK VINA RESULT:    -6.656      4.253      6.371
REMARK INTER + INTRA:         -10.116
REMARK INTER:                  -9.394
REMARK INTRA:                  -0.722
REMARK UNBOUND:                -0.735
REMARK  Name = 
REMARK  7 active torsions:
REMARK  status: ('A' for Active; 'I' for Inactive)
REMARK    1  A    between atoms: C_2  and  C_20
REMARK    2  A    between atoms: N_3  and  C_4
REMARK    3  A    between atoms: C_4  and  C_5
REMARK    4  A    between atoms: C_8  and  C_9
REMARK    5  A    between atoms: C_9  and  N_10
REMARK    6  A    between atoms: N_10  and  C_11
REMARK    7  A    between atoms: C_11  and  C_12
REMARK                            x       y       z     vdW  Elec       q    Type
REMARK                         _______ _______ _______ _____ _____    ______ ____
ROOT
ATOM      1  C   UNL     1      46.637   7.137  12.720  0.00  0.00    +0.000 A 
ATOM      2  C   UNL     1      47.765   7.894  12.380  0.00  0.00    +0.000 A 
ATOM      3  C   UNL     1      47.637   9.248  12.060  0.00  0.00    +0.000 A 
ATOM      4  C   UNL     1      46.381   9.872  12.073  0.00  0.00    +0.000 A 
ATOM      5  C   UNL     1      45.258   9.116  12.435  0.00  0.00    +0.000 A 
ATOM      6  C   UNL     1      45.386   7.763  12.760  0.00  0.00    +0.000 A 
ENDROOT
BRANCH   1   7
ATOM      7  C   UNL     1      46.770   5.675  13.038  0.00  0.00    +0.000 C 
BRANCH   7  10
ATOM      8  O   UNL     1      47.306   3.198  14.136  0.00  0.00    +0.000 OA
ATOM      9  C   UNL     1      47.246   4.166  14.893  0.00  0.00    +0.000 C 
ATOM     10  N   UNL     1      46.972   5.436  14.441  0.00  0.00    +0.000 N 
ATOM     11  H   UNL     1      46.955   6.188  15.121  0.00  0.00    +0.000 HD
BRANCH   9  12
ATOM     12  C   UNL     1      47.468   4.057  16.338  0.00  0.00    +0.000 A 
ATOM     13  N   UNL     1      46.762   3.217  17.129  0.00  0.00    +0.000 NA
ATOM     14  N   UNL     1      47.290   3.424  18.358  0.00  0.00    +0.000 N 
ATOM     15  C   UNL     1      48.277   4.363  18.389  0.00  0.00    +0.000 A 
ATOM     16  N   UNL     1      48.963   4.773  19.475  0.00  0.00    +0.000 NA
ATOM     17  C   UNL     1      49.877   5.730  19.180  0.00  0.00    +0.000 A 
ATOM     18  C   UNL     1      50.123   6.261  17.918  0.00  0.00    +0.000 A 
ATOM     19  C   UNL     1      49.386   5.790  16.831  0.00  0.00    +0.000 A 
ATOM     20  C   UNL     1      48.423   4.802  17.086  0.00  0.00    +0.000 A 
ATOM     21  H   UNL     1      46.935   2.898  19.147  0.00  0.00    +0.000 HD
ENDBRANCH   9  12
ENDBRANCH   7  10
ENDBRANCH   1   7
BRANCH   4  22
ATOM     22  C   UNL     1      46.242  11.336  11.708  0.00  0.00    +0.000 C 
BRANCH  22  23
ATOM     23  N   UNL     1      45.318  11.502  10.594  0.00  0.00    +0.000 NA
ATOM     24  H   UNL     1      44.849  10.616  10.399  0.00  0.00    +0.000 HD
BRANCH  23  25
ATOM     25  C   UNL     1      44.277  12.504  10.875  0.00  0.00    +0.000 C 
BRANCH  25  26
ATOM     26  C   UNL     1      42.917  11.859  11.116  0.00  0.00    +0.000 A 
ATOM     27  N   UNL     1      42.152  12.377  12.106  0.00  0.00    +0.000 NA
ATOM     28  C   UNL     1      40.990  11.747  12.355  0.00  0.00    +0.000 A 
ATOM     29  C   UNL     1      40.558  10.645  11.657  0.00  0.00    +0.000 A 
ATOM     30  C   UNL     1      41.396  10.209  10.658  0.00  0.00    +0.000 A 
ATOM     31  N   UNL     1      42.572  10.794  10.363  0.00  0.00    +0.000 NA
ENDBRANCH  25  26
ENDBRANCH  23  25
ENDBRANCH  22  23
ENDBRANCH   4  22
TORSDOF 7
ENDMDL
MODEL 8
REMARK VINA RESULT:    -6.615      4.935      8.703
REMARK INTER + INTRA:         -10.057
REMARK INTER:                  -9.273
REMARK INTRA:                  -0.784
REMARK UNBOUND:                -0.735
REMARK  Name = 
REMARK  7 active torsions:
REMARK  status: ('A' for Active; 'I' for Inactive)
REMARK    1  A    between atoms: C_2  and  C_20
REMARK    2  A    between atoms: N_3  and  C_4
REMARK    3  A    between atoms: C_4  and  C_5
REMARK    4  A    between atoms: C_8  and  C_9
REMARK    5  A    between atoms: C_9  and  N_10
REMARK    6  A    between atoms: N_10  and  C_11
REMARK    7  A    between atoms: C_11  and  C_12
REMARK                            x       y       z     vdW  Elec       q    Type
REMARK                         _______ _______ _______ _____ _____    ______ ____
ROOT
ATOM      1  C   UNL     1      46.809   8.089  12.166  0.00  0.00    +0.000 A 
ATOM      2  C   UNL     1      46.950   9.482  12.204  0.00  0.00    +0.000 A 
ATOM      3  C   UNL     1      48.185  10.075  11.930  0.00  0.00    +0.000 A 
ATOM      4  C   UNL     1      49.303   9.290  11.612  0.00  0.00    +0.000 A 
ATOM      5  C   UNL     1      49.153   7.898  11.553  0.00  0.00    +0.000 A 
ATOM      6  C   UNL     1      47.917   7.304  11.823  0.00  0.00    +0.000 A 
ENDROOT
BRANCH   1   7
ATOM      7  C   UNL     1      45.489   7.448  12.487  0.00  0.00    +0.000 C 
BRANCH   7  10
ATOM      8  O   UNL     1      43.245   6.385  11.277  0.00  0.00    +0.000 OA
ATOM      9  C   UNL     1      44.239   5.668  11.386  0.00  0.00    +0.000 C 
ATOM     10  N   UNL     1      45.397   6.104  11.986  0.00  0.00    +0.000 N 
ATOM     11  H   UNL     1      46.181   5.461  12.025  0.00  0.00    +0.000 HD
BRANCH   9  12
ATOM     12  C   UNL     1      44.281   4.291  10.884  0.00  0.00    +0.000 A 
ATOM     13  N   UNL     1      43.671   3.260  11.513  0.00  0.00    +0.000 NA
ATOM     14  N   UNL     1      43.947   2.200  10.718  0.00  0.00    +0.000 N 
ATOM     15  C   UNL     1      44.713   2.502   9.632  0.00  0.00    +0.000 A 
ATOM     16  N   UNL     1      45.143   1.642   8.687  0.00  0.00    +0.000 NA
ATOM     17  C   UNL     1      45.897   2.250   7.738  0.00  0.00    +0.000 A 
ATOM     18  C   UNL     1      46.217   3.602   7.694  0.00  0.00    +0.000 A 
ATOM     19  C   UNL     1      45.735   4.444   8.696  0.00  0.00    +0.000 A 
ATOM     20  C   UNL     1      44.953   3.862   9.705  0.00  0.00    +0.000 A 
ATOM     21  H   UNL     1      43.588   1.286  10.965  0.00  0.00    +0.000 HD
ENDBRANCH   9  12
ENDBRANCH   7  10
ENDBRANCH   1   7
BRANCH   4  22
ATOM     22  C   UNL     1      50.644   9.935  11.333  0.00  0.00    +0.000 C 
BRANCH  22  23
ATOM     23  N   UNL     1      51.724   9.143  11.908  0.00  0.00    +0.000 NA
ATOM     24  H   UNL     1      51.461   8.156  11.919  0.00  0.00    +0.000 HD
BRANCH  23  25
ATOM     25  C   UNL     1      52.976   9.262  11.141  0.00  0.00    +0.000 C 
BRANCH  25  26
ATOM     26  C   UNL     1      53.179   8.080  10.201  0.00  0.00    +0.000 A 
ATOM     27  N   UNL     1      52.766   8.228   8.919  0.00  0.00    +0.000 NA
ATOM     28  C   UNL     1      52.883   7.149   8.125  0.00  0.00    +0.000 A 
ATOM     29  C   UNL     1      53.403   5.948   8.545  0.00  0.00    +0.000 A 
ATOM     30  C   UNL     1      53.814   5.906   9.856  0.00  0.00    +0.000 A 
ATOM     31  N   UNL     1      53.721   6.950  10.702  0.00  0.00    +0.000 NA
ENDBRANCH  25  26
ENDBRANCH  23  25
ENDBRANCH  22  23
ENDBRANCH   4  22
TORSDOF 7
ENDMDL
MODEL 9
REMARK VINA RESULT:    -6.418      3.386      5.357
REMARK INTER + INTRA:          -9.779
REMARK INTER:                  -9.306
REMARK INTRA:                  -0.473
REMARK UNBOUND:                -0.735
REMARK  Name = 
REMARK  7 active torsions:
REMARK  status: ('A' for Active; 'I' for Inactive)
REMARK    1  A    between atoms: C_2  and  C_20
REMARK    2  A    between atoms: N_3  and  C_4
REMARK    3  A    between atoms: C_4  and  C_5
REMARK    4  A    between atoms: C_8  and  C_9
REMARK    5  A    between atoms: C_9  and  N_10
REMARK    6  A    between atoms: N_10  and  C_11
REMARK    7  A    between atoms: C_11  and  C_12
REMARK                            x       y       z     vdW  Elec       q    Type
REMARK                         _______ _______ _______ _____ _____    ______ ____
ROOT
ATOM      1  C   UNL     1      46.721   5.589  13.306  0.00  0.00    +0.000 A 
ATOM      2  C   UNL     1      46.173   6.505  12.400  0.00  0.00    +0.000 A 
ATOM      3  C   UNL     1      45.119   6.128  11.564  0.00  0.00    +0.000 A 
ATOM      4  C   UNL     1      44.593   4.829  11.616  0.00  0.00    +0.000 A 
ATOM      5  C   UNL     1      45.130   3.922  12.539  0.00  0.00    +0.000 A 
ATOM      6  C   UNL     1      46.180   4.300  13.379  0.00  0.00    +0.000 A 
ENDROOT
BRANCH   1   7
ATOM      7  C   UNL     1      47.872   5.985  14.187  0.00  0.00    +0.000 C 
BRANCH   7  10
ATOM      8  O   UNL     1      48.731   8.317  15.394  0.00  0.00    +0.000 OA
ATOM      9  C   UNL     1      49.116   8.080  14.249  0.00  0.00    +0.000 C 
ATOM     10  N   UNL     1      48.732   6.953  13.562  0.00  0.00    +0.000 N 
ATOM     11  H   UNL     1      49.103   6.817  12.628  0.00  0.00    +0.000 HD
BRANCH   9  12
ATOM     12  C   UNL     1      50.023   8.972  13.519  0.00  0.00    +0.000 A 
ATOM     13  N   UNL     1      50.311  10.228  13.933  0.00  0.00    +0.000 NA
ATOM     14  N   UNL     1      51.176  10.677  12.995  0.00  0.00    +0.000 N 
ATOM     15  C   UNL     1      51.436   9.782  12.002  0.00  0.00    +0.000 A 
ATOM     16  N   UNL     1      52.247   9.969  10.941  0.00  0.00    +0.000 NA
ATOM     17  C   UNL     1      52.288   8.889  10.122  0.00  0.00    +0.000 A 
ATOM     18  C   UNL     1      51.597   7.697  10.310  0.00  0.00    +0.000 A 
ATOM     19  C   UNL     1      50.780   7.559  11.432  0.00  0.00    +0.000 A 
ATOM     20  C   UNL     1      50.699   8.652  12.308  0.00  0.00    +0.000 A 
ATOM     21  H   UNL     1      51.561  11.610  13.079  0.00  0.00    +0.000 HD
ENDBRANCH   9  12
ENDBRANCH   7  10
ENDBRANCH   1   7
BRANCH   4  22
ATOM     22  C   UNL     1      43.463   4.417  10.695  0.00  0.00    +0.000 C 
BRANCH  22  23
ATOM     23  N   UNL     1      43.921   3.424   9.732  0.00  0.00    +0.000 NA
ATOM     24  H   UNL     1      43.136   2.840   9.437  0.00  0.00    +0.000 HD
BRANCH  23  25
ATOM     25  C   UNL     1      44.495   4.040   8.523  0.00  0.00    +0.000 C 
BRANCH  25  26
ATOM     26  C   UNL     1      45.585   3.172   7.907  0.00  0.00    +0.000 A 
ATOM     27  N   UNL     1      45.727   1.915   8.393  0.00  0.00    +0.000 NA
ATOM     28  C   UNL     1      46.743   1.191   7.891  0.00  0.00    +0.000 A 
ATOM     29  C   UNL     1      47.604   1.656   6.926  0.00  0.00    +0.000 A 
ATOM     30  C   UNL     1      47.364   2.935   6.482  0.00  0.00    +0.000 A 
ATOM     31  N   UNL     1      46.366   3.711   6.947  0.00  0.00    +0.000 NA
ENDBRANCH  25  26
ENDBRANCH  23  25
ENDBRANCH  22  23
ENDBRANCH   4  22
TORSDOF 7
ENDMDL
