MODEL 1
REMARK VINA RESULT:    -7.304      0.000      0.000
REMARK INTER + INTRA:         -10.421
REMARK INTER:                  -9.866
REMARK INTRA:                  -0.555
REMARK UNBOUND:                -0.555
REMARK  Name = 
REMARK  6 active torsions:
REMARK  status: ('A' for Active; 'I' for Inactive)
REMARK    1  A    between atoms: C_2  and  C_4
REMARK    2  A    between atoms: C_7  and  C_8
REMARK    3  A    between atoms: C_9  and  C_10
REMARK    4  A    between atoms: C_10  and  C_11
REMARK    5  A    between atoms: C_15  and  O_16
REMARK    6  A    between atoms: O_16  and  C_17
REMARK                            x       y       z     vdW  Elec       q    Type
REMARK                         _______ _______ _______ _____ _____    ______ ____
ROOT
ATOM      1  C   UNL     1      46.941   5.758  13.558  0.00  0.00    +0.000 C 
ATOM      2  C   UNL     1      46.427   6.054  12.514  0.00  0.00    +0.000 C 
ENDROOT
BRANCH   1   6
ATOM      3  C   UNL     1      48.652   4.517  17.214  0.00  0.00    +0.000 A 
ATOM      4  C   UNL     1      47.705   3.717  16.566  0.00  0.00    +0.000 A 
ATOM      5  C   UNL     1      47.148   4.134  15.355  0.00  0.00    +0.000 A 
ATOM      6  C   UNL     1      47.532   5.353  14.794  0.00  0.00    +0.000 A 
ATOM      7  C   UNL     1      48.464   6.165  15.445  0.00  0.00    +0.000 A 
ATOM      8  C   UNL     1      49.019   5.749  16.659  0.00  0.00    +0.000 A 
BRANCH   3  10
ATOM      9  N   UNL     1      48.475   3.400  19.363  0.00  0.00    +0.000 N 
ATOM     10  C   UNL     1      49.273   4.093  18.493  0.00  0.00    +0.000 C 
ATOM     11  O   UNL     1      50.448   4.314  18.747  0.00  0.00    +0.000 OA
ATOM     12  H   UNL     1      48.932   3.015  20.179  0.00  0.00    +0.000 HD
ATOM     13  H   UNL     1      47.603   2.982  19.075  0.00  0.00    +0.000 HD
ENDBRANCH   3  10
ENDBRANCH   1   6
BRANCH   2  14
ATOM     14  C   UNL     1      45.785   6.427  11.247  0.00  0.00    +0.000 C 
BRANCH  14  15
ATOM     15  C   UNL     1      45.419   5.201  10.449  0.00  0.00    +0.000 A 
ATOM     16  C   UNL     1      44.528   4.255  10.969  0.00  0.00    +0.000 A 
ATOM     17  C   UNL     1      44.109   3.178  10.186  0.00  0.00    +0.000 A 
ATOM     18  C   UNL     1      44.580   3.031   8.878  0.00  0.00    +0.000 A 
ATOM     19  C   UNL     1      45.485   3.954   8.360  0.00  0.00    +0.000 A 
ATOM     20  C   UNL     1      45.893   5.039   9.139  0.00  0.00    +0.000 A 
BRANCH  19  21
ATOM     21  O   UNL     1      46.000   3.930   7.089  0.00  0.00    +0.000 OA
BRANCH  21  22
ATOM     22  C   UNL     1      46.341   2.659   6.493  0.00  0.00    +0.000 C 
ATOM     23  C   UNL     1      47.372   1.776   7.208  0.00  0.00    +0.000 C 
ATOM     24  O   UNL     1      48.241   1.755   6.052  0.00  0.00    +0.000 OA
ATOM     25  C   UNL     1      47.403   2.727   5.385  0.00  0.00    +0.000 C 
ENDBRANCH  21  22
ENDBRANCH  19  21
ENDBRANCH  14  15
ENDBRANCH   2  14
TORSDOF 6
ENDMDL
MODEL 2
REMARK VINA RESULT:    -6.659      3.180      3.665
REMARK INTER + INTRA:          -9.550
REMARK INTER:                  -8.987
REMARK INTRA:                  -0.562
REMARK UNBOUND:                -0.555
REMARK  Name = 
REMARK  6 active torsions:
REMARK  status: ('A' for Active; 'I' for Inactive)
REMARK    1  A    between atoms: C_2  and  C_4
REMARK    2  A    between atoms: C_7  and  C_8
REMARK    3  A    between atoms: C_9  and  C_10
REMARK    4  A    between atoms: C_10  and  C_11
REMARK    5  A    between atoms: C_15  and  O_16
REMARK    6  A    between atoms: O_16  and  C_17
REMARK                            x       y       z     vdW  Elec       q    Type
REMARK                         _______ _______ _______ _____ _____    ______ ____
ROOT
ATOM      1  C   UNL     1      47.227   6.937  12.086  0.00  0.00    +0.000 C 
ATOM      2  C   UNL     1      46.140   6.645  11.666  0.00  0.00    +0.000 C 
ENDROOT
BRANCH   1   6
ATOM      3  C   UNL     1      51.009   8.112  13.551  0.00  0.00    +0.000 A 
ATOM      4  C   UNL     1      50.033   7.620  14.423  0.00  0.00    +0.000 A 
ATOM      5  C   UNL     1      48.786   7.230  13.928  0.00  0.00    +0.000 A 
ATOM      6  C   UNL     1      48.512   7.337  12.563  0.00  0.00    +0.000 A 
ATOM      7  C   UNL     1      49.478   7.843  11.690  0.00  0.00    +0.000 A 
ATOM      8  C   UNL     1      50.724   8.237  12.185  0.00  0.00    +0.000 A 
BRANCH   3  10
ATOM      9  N   UNL     1      53.425   7.876  13.494  0.00  0.00    +0.000 N 
ATOM     10  C   UNL     1      52.348   8.518  14.044  0.00  0.00    +0.000 C 
ATOM     11  O   UNL     1      52.492   9.409  14.869  0.00  0.00    +0.000 OA
ATOM     12  H   UNL     1      54.336   8.235  13.748  0.00  0.00    +0.000 HD
ATOM     13  H   UNL     1      53.355   7.341  12.642  0.00  0.00    +0.000 HD
ENDBRANCH   3  10
ENDBRANCH   1   6
BRANCH   2  14
ATOM     14  C   UNL     1      44.819   6.277  11.140  0.00  0.00    +0.000 C 
BRANCH  14  15
ATOM     15  C   UNL     1      44.887   4.978  10.377  0.00  0.00    +0.000 A 
ATOM     16  C   UNL     1      44.164   3.860  10.811  0.00  0.00    +0.000 A 
ATOM     17  C   UNL     1      44.146   2.694  10.044  0.00  0.00    +0.000 A 
ATOM     18  C   UNL     1      44.853   2.629   8.840  0.00  0.00    +0.000 A 
ATOM     19  C   UNL     1      45.594   3.728   8.413  0.00  0.00    +0.000 A 
ATOM     20  C   UNL     1      45.601   4.899   9.173  0.00  0.00    +0.000 A 
BRANCH  19  21
ATOM     21  O   UNL     1      46.309   3.794   7.243  0.00  0.00    +0.000 OA
BRANCH  21  22
ATOM     22  C   UNL     1      46.549   2.580   6.498  0.00  0.00    +0.000 C 
ATOM     23  C   UNL     1      47.695   1.665   6.950  0.00  0.00    +0.000 C 
ATOM     24  O   UNL     1      48.348   1.752   5.661  0.00  0.00    +0.000 OA
ATOM     25  C   UNL     1      47.400   2.756   5.230  0.00  0.00    +0.000 C 
ENDBRANCH  21  22
ENDBRANCH  19  21
ENDBRANCH  14  15
ENDBRANCH   2  14
TORSDOF 6
ENDMDL
MODEL 3
REMARK VINA RESULT:    -6.507      3.787      8.707
REMARK INTER + INTRA:          -9.345
REMARK INTER:                  -8.892
REMARK INTRA:                  -0.453
REMARK UNBOUND:                -0.555
REMARK  Name = 
REMARK  6 active torsions:
REMARK  status: ('A' for Active; 'I' for Inactive)
REMARK    1  A    between atoms: C_2  and  C_4
REMARK    2  A    between atoms: C_7  and  C_8
REMARK    3  A    between atoms: C_9  and  C_10
REMARK    4  A    between atoms: C_10  and  C_11
REMARK    5  A    between atoms: C_15  and  O_16
REMARK    6  A    between atoms: O_16  and  C_17
REMARK                            x       y       z     vdW  Elec       q    Type
REMARK                         _______ _______ _______ _____ _____    ______ ____
ROOT
ATOM      1  C   UNL     1      48.013   6.615  13.548  0.00  0.00    +0.000 C 
ATOM      2  C   UNL     1      48.897   7.110  14.193  0.00  0.00    +0.000 C 
ENDROOT
BRANCH   1   6
ATOM      3  C   UNL     1      44.991   4.766  11.251  0.00  0.00    +0.000 A 
ATOM      4  C   UNL     1      45.693   5.865  10.746  0.00  0.00    +0.000 A 
ATOM      5  C   UNL     1      46.694   6.466  11.511  0.00  0.00    +0.000 A 
ATOM      6  C   UNL     1      46.990   5.975  12.784  0.00  0.00    +0.000 A 
ATOM      7  C   UNL     1      46.280   4.888  13.301  0.00  0.00    +0.000 A 
ATOM      8  C   UNL     1      45.276   4.288  12.536  0.00  0.00    +0.000 A 
BRANCH   3  10
ATOM      9  N   UNL     1      43.899   4.380   9.116  0.00  0.00    +0.000 N 
ATOM     10  C   UNL     1      43.934   4.095  10.455  0.00  0.00    +0.000 C 
ATOM     11  O   UNL     1      43.155   3.295  10.954  0.00  0.00    +0.000 OA
ATOM     12  H   UNL     1      43.254   3.835   8.560  0.00  0.00    +0.000 HD
ATOM     13  H   UNL     1      44.673   4.817   8.640  0.00  0.00    +0.000 HD
ENDBRANCH   3  10
ENDBRANCH   1   6
BRANCH   2  14
ATOM     14  C   UNL     1      49.983   7.726  14.966  0.00  0.00    +0.000 C 
BRANCH  14  15
ATOM     15  C   UNL     1      50.538   6.756  15.979  0.00  0.00    +0.000 A 
ATOM     16  C   UNL     1      51.904   6.752  16.286  0.00  0.00    +0.000 A 
ATOM     17  C   UNL     1      52.395   5.928  17.299  0.00  0.00    +0.000 A 
ATOM     18  C   UNL     1      51.529   5.094  18.014  0.00  0.00    +0.000 A 
ATOM     19  C   UNL     1      50.173   5.074  17.700  0.00  0.00    +0.000 A 
ATOM     20  C   UNL     1      49.680   5.909  16.695  0.00  0.00    +0.000 A 
BRANCH  19  21
ATOM     21  O   UNL     1      49.223   4.320  18.341  0.00  0.00    +0.000 OA
BRANCH  21  22
ATOM     22  C   UNL     1      49.020   2.949  17.931  0.00  0.00    +0.000 C 
ATOM     23  C   UNL     1      50.131   2.260  17.129  0.00  0.00    +0.000 C 
ATOM     24  O   UNL     1      49.240   1.985  16.022  0.00  0.00    +0.000 OA
ATOM     25  C   UNL     1      48.199   2.774  16.643  0.00  0.00    +0.000 C 
ENDBRANCH  21  22
ENDBRANCH  19  21
ENDBRANCH  14  15
ENDBRANCH   2  14
TORSDOF 6
ENDMDL
MODEL 4
REMARK VINA RESULT:    -6.177      1.806      2.201
REMARK INTER + INTRA:          -8.899
REMARK INTER:                  -8.279
REMARK INTRA:                  -0.619
REMARK UNBOUND:                -0.555
REMARK  Name = 
REMARK  6 active torsions:
REMARK  status: ('A' for Active; 'I' for Inactive)
REMARK    1  A    between atoms: C_2  and  C_4
REMARK    2  A    between atoms: C_7  and  C_8
REMARK    3  A    between atoms: C_9  and  C_10
REMARK    4  A    between atoms: C_10  and  C_11
REMARK    5  A    between atoms: C_15  and  O_16
REMARK    6  A    between atoms: O_16  and  C_17
REMARK                            x       y       z     vdW  Elec       q    Type
REMARK                         _______ _______ _______ _____ _____    ______ ____
ROOT
ATOM      1  C   UNL     1      46.924   6.602  12.775  0.00  0.00    +0.000 C 
ATOM      2  C   UNL     1      46.054   6.527  11.951  0.00  0.00    +0.000 C 
ENDROOT
BRANCH   1   6
ATOM      3  C   UNL     1      50.053   6.902  15.594  0.00  0.00    +0.000 A 
ATOM      4  C   UNL     1      48.909   6.150  15.882  0.00  0.00    +0.000 A 
ATOM      5  C   UNL     1      47.882   6.054  14.941  0.00  0.00    +0.000 A 
ATOM      6  C   UNL     1      47.993   6.712  13.715  0.00  0.00    +0.000 A 
ATOM      7  C   UNL     1      49.126   7.478  13.429  0.00  0.00    +0.000 A 
ATOM      8  C   UNL     1      50.153   7.578  14.372  0.00  0.00    +0.000 A 
BRANCH   3  10
ATOM      9  N   UNL     1      51.059   6.267  17.711  0.00  0.00    +0.000 N 
ATOM     10  C   UNL     1      51.169   7.010  16.566  0.00  0.00    +0.000 C 
ATOM     11  O   UNL     1      52.158   7.694  16.345  0.00  0.00    +0.000 OA
ATOM     12  H   UNL     1      51.871   6.254  18.314  0.00  0.00    +0.000 HD
ATOM     13  H   UNL     1      50.400   5.508  17.798  0.00  0.00    +0.000 HD
ENDBRANCH   3  10
ENDBRANCH   1   6
BRANCH   2  14
ATOM     14  C   UNL     1      44.991   6.416  10.942  0.00  0.00    +0.000 C 
BRANCH  14  15
ATOM     15  C   UNL     1      44.871   4.999  10.441  0.00  0.00    +0.000 A 
ATOM     16  C   UNL     1      44.193   4.033  11.194  0.00  0.00    +0.000 A 
ATOM     17  C   UNL     1      43.993   2.752  10.678  0.00  0.00    +0.000 A 
ATOM     18  C   UNL     1      44.473   2.419   9.408  0.00  0.00    +0.000 A 
ATOM     19  C   UNL     1      45.170   3.366   8.662  0.00  0.00    +0.000 A 
ATOM     20  C   UNL     1      45.358   4.652   9.173  0.00  0.00    +0.000 A 
BRANCH  19  21
ATOM     21  O   UNL     1      45.669   3.167   7.399  0.00  0.00    +0.000 OA
BRANCH  21  22
ATOM     22  C   UNL     1      47.060   2.808   7.242  0.00  0.00    +0.000 C 
ATOM     23  C   UNL     1      47.629   2.718   5.820  0.00  0.00    +0.000 C 
ATOM     24  O   UNL     1      48.021   1.337   6.004  0.00  0.00    +0.000 OA
ATOM     25  C   UNL     1      47.348   1.300   7.283  0.00  0.00    +0.000 C 
ENDBRANCH  21  22
ENDBRANCH  19  21
ENDBRANCH  14  15
ENDBRANCH   2  14
TORSDOF 6
ENDMDL
MODEL 5
REMARK VINA RESULT:    -6.045      4.361      8.282
REMARK INTER + INTRA:          -8.721
REMARK INTER:                  -8.190
REMARK INTRA:                  -0.531
REMARK UNBOUND:                -0.555
REMARK  Name = 
REMARK  6 active torsions:
REMARK  status: ('A' for Active; 'I' for Inactive)
REMARK    1  A    between atoms: C_2  and  C_4
REMARK    2  A    between atoms: C_7  and  C_8
REMARK    3  A    between atoms: C_9  and  C_10
REMARK    4  A    between atoms: C_10  and  C_11
REMARK    5  A    between atoms: C_15  and  O_16
REMARK    6  A    between atoms: O_16  and  C_17
REMARK                            x       y       z     vdW  Elec       q    Type
REMARK                         _______ _______ _______ _____ _____    ______ ____
ROOT
ATOM      1  C   UNL     1      44.606   5.035  10.054  0.00  0.00    +0.000 C 
ATOM      2  C   UNL     1      44.090   5.875  10.740  0.00  0.00    +0.000 C 
ENDROOT
BRANCH   1   6
ATOM      3  C   UNL     1      46.561   2.235   7.571  0.00  0.00    +0.000 A 
ATOM      4  C   UNL     1      46.725   3.608   7.358  0.00  0.00    +0.000 A 
ATOM      5  C   UNL     1      46.078   4.526   8.188  0.00  0.00    +0.000 A 
ATOM      6  C   UNL     1      45.261   4.074   9.226  0.00  0.00    +0.000 A 
ATOM      7  C   UNL     1      45.081   2.705   9.433  0.00  0.00    +0.000 A 
ATOM      8  C   UNL     1      45.725   1.785   8.600  0.00  0.00    +0.000 A 
BRANCH   3  10
ATOM      9  N   UNL     1      48.252   1.704   5.911  0.00  0.00    +0.000 N 
ATOM     10  C   UNL     1      47.249   1.236   6.717  0.00  0.00    +0.000 C 
ATOM     11  O   UNL     1      46.967   0.047   6.756  0.00  0.00    +0.000 OA
ATOM     12  H   UNL     1      48.792   1.004   5.419  0.00  0.00    +0.000 HD
ATOM     13  H   UNL     1      48.674   2.609   6.050  0.00  0.00    +0.000 HD
ENDBRANCH   3  10
ENDBRANCH   1   6
BRANCH   2  14
ATOM     14  C   UNL     1      43.445   6.904  11.567  0.00  0.00    +0.000 C 
BRANCH  14  15
ATOM     15  C   UNL     1      44.351   8.096  11.746  0.00  0.00    +0.000 A 
ATOM     16  C   UNL     1      44.045   9.320  11.139  0.00  0.00    +0.000 A 
ATOM     17  C   UNL     1      44.828  10.446  11.394  0.00  0.00    +0.000 A 
ATOM     18  C   UNL     1      45.928  10.363  12.252  0.00  0.00    +0.000 A 
ATOM     19  C   UNL     1      46.254   9.144  12.842  0.00  0.00    +0.000 A 
ATOM     20  C   UNL     1      45.462   8.020  12.598  0.00  0.00    +0.000 A 
BRANCH  19  21
ATOM     21  O   UNL     1      47.292   8.941  13.716  0.00  0.00    +0.000 OA
BRANCH  21  22
ATOM     22  C   UNL     1      48.629   8.778  13.194  0.00  0.00    +0.000 C 
ATOM     23  C   UNL     1      48.836   8.902  11.679  0.00  0.00    +0.000 C 
ATOM     24  O   UNL     1      49.396   7.571  11.589  0.00  0.00    +0.000 OA
ATOM     25  C   UNL     1      49.066   7.321  12.975  0.00  0.00    +0.000 C 
ENDBRANCH  21  22
ENDBRANCH  19  21
ENDBRANCH  14  15
ENDBRANCH   2  14
TORSDOF 6
ENDMDL
MODEL 6
REMARK VINA RESULT:    -6.011      3.606      8.938
REMARK INTER + INTRA:          -8.675
REMARK INTER:                  -7.969
REMARK INTRA:                  -0.706
REMARK UNBOUND:                -0.555
REMARK  Name = 
REMARK  6 active torsions:
REMARK  status: ('A' for Active; 'I' for Inactive)
REMARK    1  A    between atoms: C_2  and  C_4
REMARK    2  A    between atoms: C_7  and  C_8
REMARK    3  A    between atoms: C_9  and  C_10
REMARK    4  A    between atoms: C_10  and  C_11
REMARK    5  A    between atoms: C_15  and  O_16
REMARK    6  A    between atoms: O_16  and  C_17
REMARK                            x       y       z     vdW  Elec       q    Type
REMARK                         _______ _______ _______ _____ _____    ______ ____
ROOT
ATOM      1  C   UNL     1      47.431   7.111  13.432  0.00  0.00    +0.000 C 
ATOM      2  C   UNL     1      48.125   7.809  14.119  0.00  0.00    +0.000 C 
ENDROOT
BRANCH   1   6
ATOM      3  C   UNL     1      45.071   4.671  10.920  0.00  0.00    +0.000 A 
ATOM      4  C   UNL     1      45.224   4.356  12.274  0.00  0.00    +0.000 A 
ATOM      5  C   UNL     1      46.003   5.172  13.098  0.00  0.00    +0.000 A 
ATOM      6  C   UNL     1      46.635   6.299  12.568  0.00  0.00    +0.000 A 
ATOM      7  C   UNL     1      46.500   6.609  11.213  0.00  0.00    +0.000 A 
ATOM      8  C   UNL     1      45.723   5.790  10.387  0.00  0.00    +0.000 A 
BRANCH   3  10
ATOM      9  N   UNL     1      44.090   4.271   8.735  0.00  0.00    +0.000 N 
ATOM     10  C   UNL     1      44.237   3.833  10.024  0.00  0.00    +0.000 C 
ATOM     11  O   UNL     1      43.735   2.783  10.398  0.00  0.00    +0.000 OA
ATOM     12  H   UNL     1      43.619   3.641   8.100  0.00  0.00    +0.000 HD
ATOM     13  H   UNL     1      44.694   4.973   8.334  0.00  0.00    +0.000 HD
ENDBRANCH   3  10
ENDBRANCH   1   6
BRANCH   2  14
ATOM     14  C   UNL     1      48.959   8.675  14.964  0.00  0.00    +0.000 C 
BRANCH  14  15
ATOM     15  C   UNL     1      48.627   8.484  16.422  0.00  0.00    +0.000 A 
ATOM     16  C   UNL     1      48.155   9.555  17.190  0.00  0.00    +0.000 A 
ATOM     17  C   UNL     1      47.749   9.350  18.509  0.00  0.00    +0.000 A 
ATOM     18  C   UNL     1      47.815   8.075  19.078  0.00  0.00    +0.000 A 
ATOM     19  C   UNL     1      48.306   7.008  18.330  0.00  0.00    +0.000 A 
ATOM     20  C   UNL     1      48.699   7.211  17.006  0.00  0.00    +0.000 A 
BRANCH  19  21
ATOM     21  O   UNL     1      48.399   5.711  18.768  0.00  0.00    +0.000 OA
BRANCH  21  22
ATOM     22  C   UNL     1      48.431   4.642  17.796  0.00  0.00    +0.000 C 
ATOM     23  C   UNL     1      47.097   4.046  17.329  0.00  0.00    +0.000 C 
ATOM     24  O   UNL     1      47.474   2.718  17.760  0.00  0.00    +0.000 OA
ATOM     25  C   UNL     1      48.671   3.242  18.380  0.00  0.00    +0.000 C 
ENDBRANCH  21  22
ENDBRANCH  19  21
ENDBRANCH  14  15
ENDBRANCH   2  14
TORSDOF 6
ENDMDL
MODEL 7
REMARK VINA RESULT:    -5.985      4.456      5.672
REMARK INTER + INTRA:          -8.639
REMARK INTER:                  -8.029
REMARK INTRA:                  -0.610
REMARK UNBOUND:                -0.555
REMARK  Name = 
REMARK  6 active torsions:
REMARK  status: ('A' for Active; 'I' for Inactive)
REMARK    1  A    between atoms: C_2  and  C_4
REMARK    2  A    between atoms: C_7  and  C_8
REMARK    3  A    between atoms: C_9  and  C_10
REMARK    4  A    between atoms: C_10  and  C_11
REMARK    5  A    between atoms: C_15  and  O_16
REMARK    6  A    between atoms: O_16  and  C_17
REMARK                            x       y       z     vdW  Elec       q    Type
REMARK                         _______ _______ _______ _____ _____    ______ ____
ROOT
ATOM      1  C   UNL     1      47.880   6.729  12.900  0.00  0.00    +0.000 C 
ATOM      2  C   UNL     1      47.215   5.845  13.368  0.00  0.00    +0.000 C 
ENDROOT
BRANCH   1   6
ATOM      3  C   UNL     1      50.121   9.882  11.207  0.00  0.00    +0.000 A 
ATOM      4  C   UNL     1      50.684   8.610  11.352  0.00  0.00    +0.000 A 
ATOM      5  C   UNL     1      49.933   7.573  11.909  0.00  0.00    +0.000 A 
ATOM      6  C   UNL     1      48.622   7.806  12.327  0.00  0.00    +0.000 A 
ATOM      7  C   UNL     1      48.060   9.079  12.201  0.00  0.00    +0.000 A 
ATOM      8  C   UNL     1      48.813  10.119  11.647  0.00  0.00    +0.000 A 
BRANCH   3  10
ATOM      9  N   UNL     1      51.951  10.658   9.813  0.00  0.00    +0.000 N 
ATOM     10  C   UNL     1      50.888  11.000  10.604  0.00  0.00    +0.000 C 
ATOM     11  O   UNL     1      50.568  12.169  10.769  0.00  0.00    +0.000 OA
ATOM     12  H   UNL     1      52.398  11.415   9.313  0.00  0.00    +0.000 HD
ATOM     13  H   UNL     1      52.074   9.724   9.452  0.00  0.00    +0.000 HD
ENDBRANCH   3  10
ENDBRANCH   1   6
BRANCH   2  14
ATOM     14  C   UNL     1      46.408   4.752  13.927  0.00  0.00    +0.000 C 
BRANCH  14  15
ATOM     15  C   UNL     1      45.259   4.411  13.012  0.00  0.00    +0.000 A 
ATOM     16  C   UNL     1      43.997   4.984  13.210  0.00  0.00    +0.000 A 
ATOM     17  C   UNL     1      42.967   4.748  12.299  0.00  0.00    +0.000 A 
ATOM     18  C   UNL     1      43.182   3.933  11.184  0.00  0.00    +0.000 A 
ATOM     19  C   UNL     1      44.427   3.339  10.992  0.00  0.00    +0.000 A 
ATOM     20  C   UNL     1      45.461   3.586  11.896  0.00  0.00    +0.000 A 
BRANCH  19  21
ATOM     21  O   UNL     1      44.767   2.540   9.930  0.00  0.00    +0.000 OA
BRANCH  21  22
ATOM     22  C   UNL     1      44.838   3.121   8.609  0.00  0.00    +0.000 C 
ATOM     23  C   UNL     1      46.002   2.711   7.698  0.00  0.00    +0.000 C 
ATOM     24  O   UNL     1      46.449   4.080   7.558  0.00  0.00    +0.000 OA
ATOM     25  C   UNL     1      45.487   4.512   8.547  0.00  0.00    +0.000 C 
ENDBRANCH  21  22
ENDBRANCH  19  21
ENDBRANCH  14  15
ENDBRANCH   2  14
TORSDOF 6
ENDMDL
MODEL 8
REMARK VINA RESULT:    -5.715      4.119      8.850
REMARK INTER + INTRA:          -8.274
REMARK INTER:                  -7.564
REMARK INTRA:                  -0.710
REMARK UNBOUND:                -0.555
REMARK  Name = 
REMARK  6 active torsions:
REMARK  status: ('A' for Active; 'I' for Inactive)
REMARK    1  A    between atoms: C_2  and  C_4
REMARK    2  A    between atoms: C_7  and  C_8
REMARK    3  A    between atoms: C_9  and  C_10
REMARK    4  A    between atoms: C_10  and  C_11
REMARK    5  A    between atoms: C_15  and  O_16
REMARK    6  A    between atoms: O_16  and  C_17
REMARK                            x       y       z     vdW  Elec       q    Type
REMARK                         _______ _______ _______ _____ _____    ______ ____
ROOT
ATOM      1  C   UNL     1      48.313   6.988  13.530  0.00  0.00    +0.000 C 
ATOM      2  C   UNL     1      49.383   7.331  13.953  0.00  0.00    +0.000 C 
ENDROOT
BRANCH   1   6
ATOM      3  C   UNL     1      44.605   5.857  11.854  0.00  0.00    +0.000 A 
ATOM      4  C   UNL     1      45.258   7.014  11.416  0.00  0.00    +0.000 A 
ATOM      5  C   UNL     1      46.486   7.377  11.973  0.00  0.00    +0.000 A 
ATOM      6  C   UNL     1      47.060   6.589  12.973  0.00  0.00    +0.000 A 
ATOM      7  C   UNL     1      46.405   5.442  13.426  0.00  0.00    +0.000 A 
ATOM      8  C   UNL     1      45.173   5.080  12.871  0.00  0.00    +0.000 A 
BRANCH   3  10
ATOM      9  N   UNL     1      42.185   6.038  11.773  0.00  0.00    +0.000 N 
ATOM     10  C   UNL     1      43.308   5.437  11.270  0.00  0.00    +0.000 C 
ATOM     11  O   UNL     1      43.240   4.625  10.358  0.00  0.00    +0.000 OA
ATOM     12  H   UNL     1      41.317   5.834  11.295  0.00  0.00    +0.000 HD
ATOM     13  H   UNL     1      42.228   6.882  12.323  0.00  0.00    +0.000 HD
ENDBRANCH   3  10
ENDBRANCH   1   6
BRANCH   2  14
ATOM     14  C   UNL     1      50.684   7.767  14.478  0.00  0.00    +0.000 C 
BRANCH  14  15
ATOM     15  C   UNL     1      50.881   7.285  15.893  0.00  0.00    +0.000 A 
ATOM     16  C   UNL     1      51.754   7.956  16.758  0.00  0.00    +0.000 A 
ATOM     17  C   UNL     1      51.852   7.571  18.096  0.00  0.00    +0.000 A 
ATOM     18  C   UNL     1      51.087   6.508  18.583  0.00  0.00    +0.000 A 
ATOM     19  C   UNL     1      50.235   5.819  17.725  0.00  0.00    +0.000 A 
ATOM     20  C   UNL     1      50.126   6.213  16.390  0.00  0.00    +0.000 A 
BRANCH  19  21
ATOM     21  O   UNL     1      49.419   4.777  18.088  0.00  0.00    +0.000 OA
BRANCH  21  22
ATOM     22  C   UNL     1      48.474   4.256  17.126  0.00  0.00    +0.000 C 
ATOM     23  C   UNL     1      46.977   4.408  17.423  0.00  0.00    +0.000 C 
ATOM     24  O   UNL     1      46.761   2.979  17.357  0.00  0.00    +0.000 OA
ATOM     25  C   UNL     1      48.185   2.752  17.250  0.00  0.00    +0.000 C 
ENDBRANCH  21  22
ENDBRANCH  19  21
ENDBRANCH  14  15
ENDBRANCH   2  14
TORSDOF 6
ENDMDL
MODEL 9
REMARK VINA RESULT:    -5.570      3.892      9.639
REMARK INTER + INTRA:          -8.079
REMARK INTER:                  -7.427
REMARK INTRA:                  -0.652
REMARK UNBOUND:                -0.555
REMARK  Name = 
REMARK  6 active torsions:
REMARK  status: ('A' for Active; 'I' for Inactive)
REMARK    1  A    between atoms: C_2  and  C_4
REMARK    2  A    between atoms: C_7  and  C_8
REMARK    3  A    between atoms: C_9  and  C_10
REMARK    4  A    between atoms: C_10  and  C_11
REMARK    5  A    between atoms: C_15  and  O_16
REMARK    6  A    between atoms: O_16  and  C_17
REMARK                            x       y       z     vdW  Elec       q    Type
REMARK                         _______ _______ _______ _____ _____    ______ ____
ROOT
ATOM      1  C   UNL     1      47.860   6.505  13.664  0.00  0.00    +0.000 C 
ATOM      2  C   UNL     1      48.622   7.261  14.201  0.00  0.00    +0.000 C 
ENDROOT
BRANCH   1   6
ATOM      3  C   UNL     1      45.082   4.020  11.678  0.00  0.00    +0.000 A 
ATOM      4  C   UNL     1      45.406   5.278  11.160  0.00  0.00    +0.000 A 
ATOM      5  C   UNL     1      46.329   6.090  11.821  0.00  0.00    +0.000 A 
ATOM      6  C   UNL     1      46.925   5.650  13.005  0.00  0.00    +0.000 A 
ATOM      7  C   UNL     1      46.593   4.402  13.536  0.00  0.00    +0.000 A 
ATOM      8  C   UNL     1      45.666   3.590  12.876  0.00  0.00    +0.000 A 
BRANCH   3  10
ATOM      9  N   UNL     1      44.624   2.320  10.006  0.00  0.00    +0.000 N 
ATOM     10  C   UNL     1      44.118   3.128  10.990  0.00  0.00    +0.000 C 
ATOM     11  O   UNL     1      42.938   3.081  11.305  0.00  0.00    +0.000 OA
ATOM     12  H   UNL     1      43.988   1.634   9.620  0.00  0.00    +0.000 HD
ATOM     13  H   UNL     1      45.613   2.148   9.908  0.00  0.00    +0.000 HD
ENDBRANCH   3  10
ENDBRANCH   1   6
BRANCH   2  14
ATOM     14  C   UNL     1      49.547   8.182  14.876  0.00  0.00    +0.000 C 
BRANCH  14  15
ATOM     15  C   UNL     1      49.078   8.485  16.277  0.00  0.00    +0.000 A 
ATOM     16  C   UNL     1      48.257   9.590  16.528  0.00  0.00    +0.000 A 
ATOM     17  C   UNL     1      47.739   9.806  17.805  0.00  0.00    +0.000 A 
ATOM     18  C   UNL     1      48.040   8.924  18.848  0.00  0.00    +0.000 A 
ATOM     19  C   UNL     1      48.875   7.835  18.613  0.00  0.00    +0.000 A 
ATOM     20  C   UNL     1      49.382   7.612  17.331  0.00  0.00    +0.000 A 
BRANCH  19  21
ATOM     21  O   UNL     1      49.224   6.890  19.545  0.00  0.00    +0.000 OA
BRANCH  21  22
ATOM     22  C   UNL     1      48.258   5.884  19.920  0.00  0.00    +0.000 C 
ATOM     23  C   UNL     1      47.984   5.663  21.414  0.00  0.00    +0.000 C 
ATOM     24  O   UNL     1      48.359   4.268  21.334  0.00  0.00    +0.000 OA
ATOM     25  C   UNL     1      48.804   4.448  19.970  0.00  0.00    +0.000 C 
ENDBRANCH  21  22
ENDBRANCH  19  21
ENDBRANCH  14  15
ENDBRANCH   2  14
TORSDOF 6
ENDMDL
