MODEL 1
REMARK VINA RESULT:    -7.431      0.000      0.000
REMARK INTER + INTRA:         -11.235
REMARK INTER:                 -10.038
REMARK INTRA:                  -1.197
REMARK UNBOUND:                -1.197
REMARK  Name = 
REMARK  7 active torsions:
REMARK  status: ('A' for Active; 'I' for Inactive)
REMARK    1  A    between atoms: C_1  and  C_2
REMARK    2  A    between atoms: C_2  and  N_3
REMARK    3  A    between atoms: C_2  and  C_16
REMARK    4  A    between atoms: C_4  and  C_6
REMARK    5  A    between atoms: C_19  and  C_20
REMARK    6  A    between atoms: C_20  and  N_21
REMARK    7  A    between atoms: C_22  and  C_24
REMARK                            x       y       z     vdW  Elec       q    Type
REMARK                         _______ _______ _______ _____ _____    ______ ____
ROOT
ATOM      1  C   UNL     1      47.626   8.649  14.151  0.00  0.00    +0.000 C 
ATOM      2  C   UNL     1      48.095   7.207  14.362  0.00  0.00    +0.000 C 
ENDROOT
BRANCH   2   3
ATOM      3  C   UNL     1      47.221   6.238  13.569  0.00  0.00    +0.000 A 
ATOM      4  C   UNL     1      46.996   4.934  14.028  0.00  0.00    +0.000 A 
ATOM      5  C   UNL     1      46.171   4.054  13.312  0.00  0.00    +0.000 A 
ATOM      6  C   UNL     1      45.555   4.455  12.118  0.00  0.00    +0.000 A 
ATOM      7  C   UNL     1      45.765   5.763  11.666  0.00  0.00    +0.000 A 
ATOM      8  C   UNL     1      46.591   6.640  12.378  0.00  0.00    +0.000 A 
BRANCH   6   9
ATOM      9  C   UNL     1      44.693   3.499  11.331  0.00  0.00    +0.000 C 
BRANCH   9  10
ATOM     10  N   UNL     1      45.370   2.950  10.182  0.00  0.00    +0.000 N 
ATOM     11  C   UNL     1      45.158   3.455   8.915  0.00  0.00    +0.000 C 
ATOM     12  O   UNL     1      44.402   4.390   8.673  0.00  0.00    +0.000 OA
ATOM     13  H   UNL     1      46.091   2.243  10.296  0.00  0.00    +0.000 HD
BRANCH  11  14
ATOM     14  C   UNL     1      45.918   2.781   7.823  0.00  0.00    +0.000 A 
ATOM     15  C   UNL     1      46.385   1.484   7.996  0.00  0.00    +0.000 A 
ATOM     16  N   UNL     1      47.100   0.834   7.040  0.00  0.00    +0.000 NA
ATOM     17  C   UNL     1      47.330   1.543   5.911  0.00  0.00    +0.000 A 
ATOM     18  C   UNL     1      46.864   2.837   5.737  0.00  0.00    +0.000 A 
ATOM     19  N   UNL     1      46.143   3.494   6.680  0.00  0.00    +0.000 NA
ENDBRANCH  11  14
ENDBRANCH   9  10
ENDBRANCH   6   9
ENDBRANCH   2   3
BRANCH   2  20
ATOM     20  N   UNL     1      48.070   6.816  15.760  0.00  0.00    +0.000 N 
ATOM     21  C   UNL     1      49.166   6.389  16.469  0.00  0.00    +0.000 C 
ATOM     22  O   UNL     1      50.295   6.341  15.999  0.00  0.00    +0.000 OA
ATOM     23  H   UNL     1      47.160   6.517  16.095  0.00  0.00    +0.000 HD
BRANCH  21  24
ATOM     24  C   UNL     1      48.907   6.070  17.879  0.00  0.00    +0.000 A 
ATOM     25  C   UNL     1      49.185   4.802  18.372  0.00  0.00    +0.000 A 
ATOM     26  S   UNL     1      48.888   4.645  20.046  0.00  0.00    +0.000 S 
ATOM     27  C   UNL     1      48.326   6.248  20.155  0.00  0.00    +0.000 A 
ATOM     28  N   UNL     1      47.886   6.763  21.335  0.00  0.00    +0.000 NA
ATOM     29  C   UNL     1      47.464   7.981  21.261  0.00  0.00    +0.000 A 
ATOM     30  N   UNL     1      47.445   8.735  20.117  0.00  0.00    +0.000 N 
ATOM     31  C   UNL     1      47.901   8.266  18.909  0.00  0.00    +0.000 A 
ATOM     32  O   UNL     1      47.908   8.978  17.912  0.00  0.00    +0.000 OA
ATOM     33  C   UNL     1      48.381   6.896  18.936  0.00  0.00    +0.000 A 
ATOM     34  H   UNL     1      47.111   9.686  20.122  0.00  0.00    +0.000 HD
ENDBRANCH  21  24
ENDBRANCH   2  20
TORSDOF 6
ENDMDL
MODEL 2
REMARK VINA RESULT:    -7.252      2.278      2.759
REMARK INTER + INTRA:         -10.993
REMARK INTER:                  -9.799
REMARK INTRA:                  -1.194
REMARK UNBOUND:                -1.197
REMARK  Name = 
REMARK  7 active torsions:
REMARK  status: ('A' for Active; 'I' for Inactive)
REMARK    1  A    between atoms: C_1  and  C_2
REMARK    2  A    between atoms: C_2  and  N_3
REMARK    3  A    between atoms: C_2  and  C_16
REMARK    4  A    between atoms: C_4  and  C_6
REMARK    5  A    between atoms: C_19  and  C_20
REMARK    6  A    between atoms: C_20  and  N_21
REMARK    7  A    between atoms: C_22  and  C_24
REMARK                            x       y       z     vdW  Elec       q    Type
REMARK                         _______ _______ _______ _____ _____    ______ ____
ROOT
ATOM      1  C   UNL     1      48.152   9.843  15.028  0.00  0.00    +0.000 C 
ATOM      2  C   UNL     1      48.579   8.463  14.519  0.00  0.00    +0.000 C 
ENDROOT
BRANCH   2   3
ATOM      3  C   UNL     1      47.572   7.933  13.502  0.00  0.00    +0.000 A 
ATOM      4  C   UNL     1      47.782   6.708  12.855  0.00  0.00    +0.000 A 
ATOM      5  C   UNL     1      46.842   6.210  11.940  0.00  0.00    +0.000 A 
ATOM      6  C   UNL     1      45.673   6.925  11.647  0.00  0.00    +0.000 A 
ATOM      7  C   UNL     1      45.454   8.142  12.304  0.00  0.00    +0.000 A 
ATOM      8  C   UNL     1      46.392   8.640  13.214  0.00  0.00    +0.000 A 
BRANCH   6   9
ATOM      9  C   UNL     1      44.678   6.405  10.640  0.00  0.00    +0.000 C 
BRANCH   9  10
ATOM     10  N   UNL     1      45.267   5.498   9.685  0.00  0.00    +0.000 N 
ATOM     11  C   UNL     1      44.808   4.204   9.548  0.00  0.00    +0.000 C 
ATOM     12  O   UNL     1      43.883   3.736  10.204  0.00  0.00    +0.000 OA
ATOM     13  H   UNL     1      45.967   5.825   9.026  0.00  0.00    +0.000 HD
BRANCH  11  14
ATOM     14  C   UNL     1      45.518   3.378   8.529  0.00  0.00    +0.000 A 
ATOM     15  C   UNL     1      45.725   2.022   8.753  0.00  0.00    +0.000 A 
ATOM     16  N   UNL     1      46.385   1.231   7.866  0.00  0.00    +0.000 NA
ATOM     17  C   UNL     1      46.831   1.859   6.753  0.00  0.00    +0.000 A 
ATOM     18  C   UNL     1      46.624   3.211   6.530  0.00  0.00    +0.000 A 
ATOM     19  N   UNL     1      45.962   4.010   7.402  0.00  0.00    +0.000 NA
ENDBRANCH  11  14
ENDBRANCH   9  10
ENDBRANCH   6   9
ENDBRANCH   2   3
BRANCH   2  20
ATOM     20  N   UNL     1      48.708   7.494  15.592  0.00  0.00    +0.000 N 
ATOM     21  C   UNL     1      49.875   6.849  15.922  0.00  0.00    +0.000 C 
ATOM     22  O   UNL     1      50.945   7.065  15.367  0.00  0.00    +0.000 OA
ATOM     23  H   UNL     1      47.841   7.036  15.850  0.00  0.00    +0.000 HD
BRANCH  21  24
ATOM     24  C   UNL     1      49.775   5.927  17.061  0.00  0.00    +0.000 A 
ATOM     25  C   UNL     1      50.605   6.083  18.163  0.00  0.00    +0.000 A 
ATOM     26  S   UNL     1      50.288   4.964  19.413  0.00  0.00    +0.000 S 
ATOM     27  C   UNL     1      49.071   4.200  18.501  0.00  0.00    +0.000 A 
ATOM     28  N   UNL     1      48.392   3.126  18.988  0.00  0.00    +0.000 NA
ATOM     29  C   UNL     1      47.518   2.635  18.175  0.00  0.00    +0.000 A 
ATOM     30  N   UNL     1      47.256   3.119  16.920  0.00  0.00    +0.000 N 
ATOM     31  C   UNL     1      47.898   4.214  16.396  0.00  0.00    +0.000 A 
ATOM     32  O   UNL     1      47.614   4.647  15.285  0.00  0.00    +0.000 OA
ATOM     33  C   UNL     1      48.898   4.801  17.268  0.00  0.00    +0.000 A 
ATOM     34  H   UNL     1      46.553   2.698  16.332  0.00  0.00    +0.000 HD
ENDBRANCH  21  24
ENDBRANCH   2  20
TORSDOF 6
ENDMDL
MODEL 3
REMARK VINA RESULT:    -7.193      4.826      7.021
REMARK INTER + INTRA:         -10.914
REMARK INTER:                  -9.930
REMARK INTRA:                  -0.983
REMARK UNBOUND:                -1.197
REMARK  Name = 
REMARK  7 active torsions:
REMARK  status: ('A' for Active; 'I' for Inactive)
REMARK    1  A    between atoms: C_1  and  C_2
REMARK    2  A    between atoms: C_2  and  N_3
REMARK    3  A    between atoms: C_2  and  C_16
REMARK    4  A    between atoms: C_4  and  C_6
REMARK    5  A    between atoms: C_19  and  C_20
REMARK    6  A    between atoms: C_20  and  N_21
REMARK    7  A    between atoms: C_22  and  C_24
REMARK                            x       y       z     vdW  Elec       q    Type
REMARK                         _______ _______ _______ _____ _____    ______ ____
ROOT
ATOM      1  C   UNL     1      46.662   3.487  13.146  0.00  0.00    +0.000 C 
ATOM      2  C   UNL     1      46.351   4.522  14.230  0.00  0.00    +0.000 C 
ENDROOT
BRANCH   2   3
ATOM      3  C   UNL     1      46.058   5.883  13.603  0.00  0.00    +0.000 A 
ATOM      4  C   UNL     1      46.977   6.935  13.707  0.00  0.00    +0.000 A 
ATOM      5  C   UNL     1      46.717   8.176  13.107  0.00  0.00    +0.000 A 
ATOM      6  C   UNL     1      45.531   8.397  12.393  0.00  0.00    +0.000 A 
ATOM      7  C   UNL     1      44.618   7.341  12.274  0.00  0.00    +0.000 A 
ATOM      8  C   UNL     1      44.876   6.105  12.875  0.00  0.00    +0.000 A 
BRANCH   6   9
ATOM      9  C   UNL     1      45.236   9.740  11.775  0.00  0.00    +0.000 C 
BRANCH   9  10
ATOM     10  N   UNL     1      43.885  10.184  12.015  0.00  0.00    +0.000 N 
ATOM     11  C   UNL     1      43.002  10.390  10.974  0.00  0.00    +0.000 C 
ATOM     12  O   UNL     1      43.287  10.211   9.794  0.00  0.00    +0.000 OA
ATOM     13  H   UNL     1      43.526  10.260  12.962  0.00  0.00    +0.000 HD
BRANCH  11  14
ATOM     14  C   UNL     1      41.643  10.858  11.371  0.00  0.00    +0.000 A 
ATOM     15  C   UNL     1      40.540  10.537  10.588  0.00  0.00    +0.000 A 
ATOM     16  N   UNL     1      39.283  10.957  10.895  0.00  0.00    +0.000 NA
ATOM     17  C   UNL     1      39.185  11.714  12.012  0.00  0.00    +0.000 A 
ATOM     18  C   UNL     1      40.285  12.034  12.793  0.00  0.00    +0.000 A 
ATOM     19  N   UNL     1      41.542  11.616  12.502  0.00  0.00    +0.000 NA
ENDBRANCH  11  14
ENDBRANCH   9  10
ENDBRANCH   6   9
ENDBRANCH   2   3
BRANCH   2  20
ATOM     20  N   UNL     1      47.441   4.674  15.178  0.00  0.00    +0.000 N 
ATOM     21  C   UNL     1      47.465   4.117  16.433  0.00  0.00    +0.000 C 
ATOM     22  O   UNL     1      46.581   3.389  16.864  0.00  0.00    +0.000 OA
ATOM     23  H   UNL     1      48.013   5.499  15.029  0.00  0.00    +0.000 HD
BRANCH  21  24
ATOM     24  C   UNL     1      48.683   4.385  17.208  0.00  0.00    +0.000 A 
ATOM     25  C   UNL     1      48.823   5.581  17.900  0.00  0.00    +0.000 A 
ATOM     26  S   UNL     1      50.271   5.678  18.799  0.00  0.00    +0.000 S 
ATOM     27  C   UNL     1      50.783   4.150  18.250  0.00  0.00    +0.000 A 
ATOM     28  N   UNL     1      51.979   3.627  18.634  0.00  0.00    +0.000 NA
ATOM     29  C   UNL     1      52.246   2.474  18.116  0.00  0.00    +0.000 A 
ATOM     30  N   UNL     1      51.427   1.794  17.255  0.00  0.00    +0.000 N 
ATOM     31  C   UNL     1      50.202   2.271  16.859  0.00  0.00    +0.000 A 
ATOM     32  O   UNL     1      49.474   1.621  16.117  0.00  0.00    +0.000 OA
ATOM     33  C   UNL     1      49.855   3.570  17.407  0.00  0.00    +0.000 A 
ATOM     34  H   UNL     1      51.686   0.890  16.889  0.00  0.00    +0.000 HD
ENDBRANCH  21  24
ENDBRANCH   2  20
TORSDOF 6
ENDMDL
MODEL 4
REMARK VINA RESULT:    -7.138      4.221      9.246
REMARK INTER + INTRA:         -10.839
REMARK INTER:                  -9.716
REMARK INTRA:                  -1.123
REMARK UNBOUND:                -1.197
REMARK  Name = 
REMARK  7 active torsions:
REMARK  status: ('A' for Active; 'I' for Inactive)
REMARK    1  A    between atoms: C_1  and  C_2
REMARK    2  A    between atoms: C_2  and  N_3
REMARK    3  A    between atoms: C_2  and  C_16
REMARK    4  A    between atoms: C_4  and  C_6
REMARK    5  A    between atoms: C_19  and  C_20
REMARK    6  A    between atoms: C_20  and  N_21
REMARK    7  A    between atoms: C_22  and  C_24
REMARK                            x       y       z     vdW  Elec       q    Type
REMARK                         _______ _______ _______ _____ _____    ______ ____
ROOT
ATOM      1  C   UNL     1      49.195   7.514  13.024  0.00  0.00    +0.000 C 
ATOM      2  C   UNL     1      47.907   6.949  13.629  0.00  0.00    +0.000 C 
ENDROOT
BRANCH   2   3
ATOM      3  C   UNL     1      48.216   6.135  14.883  0.00  0.00    +0.000 A 
ATOM      4  C   UNL     1      49.231   6.530  15.764  0.00  0.00    +0.000 A 
ATOM      5  C   UNL     1      49.495   5.795  16.929  0.00  0.00    +0.000 A 
ATOM      6  C   UNL     1      48.756   4.645  17.238  0.00  0.00    +0.000 A 
ATOM      7  C   UNL     1      47.731   4.257  16.368  0.00  0.00    +0.000 A 
ATOM      8  C   UNL     1      47.469   4.988  15.205  0.00  0.00    +0.000 A 
BRANCH   6   9
ATOM      9  C   UNL     1      49.062   3.836  18.475  0.00  0.00    +0.000 C 
BRANCH   9  10
ATOM     10  N   UNL     1      50.410   3.326  18.492  0.00  0.00    +0.000 N 
ATOM     11  C   UNL     1      50.802   2.305  17.649  0.00  0.00    +0.000 C 
ATOM     12  O   UNL     1      50.056   1.770  16.835  0.00  0.00    +0.000 OA
ATOM     13  H   UNL     1      51.126   3.774  19.057  0.00  0.00    +0.000 HD
BRANCH  11  14
ATOM     14  C   UNL     1      52.223   1.873  17.785  0.00  0.00    +0.000 A 
ATOM     15  C   UNL     1      53.242   2.819  17.785  0.00  0.00    +0.000 A 
ATOM     16  N   UNL     1      54.553   2.476  17.885  0.00  0.00    +0.000 NA
ATOM     17  C   UNL     1      54.796   1.148  17.978  0.00  0.00    +0.000 A 
ATOM     18  C   UNL     1      53.781   0.205  17.978  0.00  0.00    +0.000 A 
ATOM     19  N   UNL     1      52.469   0.534  17.887  0.00  0.00    +0.000 NA
ENDBRANCH  11  14
ENDBRANCH   9  10
ENDBRANCH   6   9
ENDBRANCH   2   3
BRANCH   2  20
ATOM     20  N   UNL     1      47.181   6.106  12.696  0.00  0.00    +0.000 N 
ATOM     21  C   UNL     1      46.185   6.547  11.860  0.00  0.00    +0.000 C 
ATOM     22  O   UNL     1      45.839   7.719  11.785  0.00  0.00    +0.000 OA
ATOM     23  H   UNL     1      47.175   5.121  12.939  0.00  0.00    +0.000 HD
BRANCH  21  24
ATOM     24  C   UNL     1      45.609   5.519  10.984  0.00  0.00    +0.000 A 
ATOM     25  C   UNL     1      45.774   5.600   9.607  0.00  0.00    +0.000 A 
ATOM     26  S   UNL     1      45.098   4.278   8.765  0.00  0.00    +0.000 S 
ATOM     27  C   UNL     1      44.514   3.583  10.206  0.00  0.00    +0.000 A 
ATOM     28  N   UNL     1      43.809   2.420  10.193  0.00  0.00    +0.000 NA
ATOM     29  C   UNL     1      43.407   2.028  11.356  0.00  0.00    +0.000 A 
ATOM     30  N   UNL     1      43.649   2.689  12.532  0.00  0.00    +0.000 N 
ATOM     31  C   UNL     1      44.376   3.853  12.596  0.00  0.00    +0.000 A 
ATOM     32  O   UNL     1      44.608   4.400  13.668  0.00  0.00    +0.000 OA
ATOM     33  C   UNL     1      44.846   4.342  11.313  0.00  0.00    +0.000 A 
ATOM     34  H   UNL     1      43.316   2.330  13.413  0.00  0.00    +0.000 HD
ENDBRANCH  21  24
ENDBRANCH   2  20
TORSDOF 6
ENDMDL
MODEL 5
REMARK VINA RESULT:    -7.104      3.714      5.310
REMARK INTER + INTRA:         -10.793
REMARK INTER:                  -9.700
REMARK INTRA:                  -1.094
REMARK UNBOUND:                -1.197
REMARK  Name = 
REMARK  7 active torsions:
REMARK  status: ('A' for Active; 'I' for Inactive)
REMARK    1  A    between atoms: C_1  and  C_2
REMARK    2  A    between atoms: C_2  and  N_3
REMARK    3  A    between atoms: C_2  and  C_16
REMARK    4  A    between atoms: C_4  and  C_6
REMARK    5  A    between atoms: C_19  and  C_20
REMARK    6  A    between atoms: C_20  and  N_21
REMARK    7  A    between atoms: C_22  and  C_24
REMARK                            x       y       z     vdW  Elec       q    Type
REMARK                         _______ _______ _______ _____ _____    ______ ____
ROOT
ATOM      1  C   UNL     1      47.474   3.051  17.656  0.00  0.00    +0.000 C 
ATOM      2  C   UNL     1      48.344   4.295  17.453  0.00  0.00    +0.000 C 
ENDROOT
BRANCH   2   3
ATOM      3  C   UNL     1      47.993   4.985  16.137  0.00  0.00    +0.000 A 
ATOM      4  C   UNL     1      47.074   4.412  15.248  0.00  0.00    +0.000 A 
ATOM      5  C   UNL     1      46.733   5.061  14.053  0.00  0.00    +0.000 A 
ATOM      6  C   UNL     1      47.305   6.295  13.714  0.00  0.00    +0.000 A 
ATOM      7  C   UNL     1      48.211   6.877  14.609  0.00  0.00    +0.000 A 
ATOM      8  C   UNL     1      48.554   6.229  15.800  0.00  0.00    +0.000 A 
BRANCH   6   9
ATOM      9  C   UNL     1      46.963   6.978  12.414  0.00  0.00    +0.000 C 
BRANCH   9  10
ATOM     10  N   UNL     1      46.684   6.048  11.348  0.00  0.00    +0.000 N 
ATOM     11  C   UNL     1      45.392   5.804  10.928  0.00  0.00    +0.000 C 
ATOM     12  O   UNL     1      44.405   6.350  11.410  0.00  0.00    +0.000 OA
ATOM     13  H   UNL     1      47.441   5.626  10.818  0.00  0.00    +0.000 HD
BRANCH  11  14
ATOM     14  C   UNL     1      45.255   4.811   9.823  0.00  0.00    +0.000 A 
ATOM     15  C   UNL     1      44.457   3.686   9.994  0.00  0.00    +0.000 A 
ATOM     16  N   UNL     1      44.315   2.741   9.026  0.00  0.00    +0.000 NA
ATOM     17  C   UNL     1      45.012   2.972   7.889  0.00  0.00    +0.000 A 
ATOM     18  C   UNL     1      45.807   4.094   7.719  0.00  0.00    +0.000 A 
ATOM     19  N   UNL     1      45.952   5.047   8.673  0.00  0.00    +0.000 NA
ENDBRANCH  11  14
ENDBRANCH   9  10
ENDBRANCH   6   9
ENDBRANCH   2   3
BRANCH   2  20
ATOM     20  N   UNL     1      49.762   3.983  17.448  0.00  0.00    +0.000 N 
ATOM     21  C   UNL     1      50.612   4.206  18.504  0.00  0.00    +0.000 C 
ATOM     22  O   UNL     1      50.244   4.652  19.583  0.00  0.00    +0.000 OA
ATOM     23  H   UNL     1      50.178   3.937  16.524  0.00  0.00    +0.000 HD
BRANCH  21  24
ATOM     24  C   UNL     1      52.002   3.788  18.281  0.00  0.00    +0.000 A 
ATOM     25  C   UNL     1      53.044   4.679  18.499  0.00  0.00    +0.000 A 
ATOM     26  S   UNL     1      54.587   3.988  18.258  0.00  0.00    +0.000 S 
ATOM     27  C   UNL     1      53.912   2.494  17.801  0.00  0.00    +0.000 A 
ATOM     28  N   UNL     1      54.699   1.445  17.440  0.00  0.00    +0.000 NA
ATOM     29  C   UNL     1      54.048   0.386  17.091  0.00  0.00    +0.000 A 
ATOM     30  N   UNL     1      52.682   0.276  17.075  0.00  0.00    +0.000 N 
ATOM     31  C   UNL     1      51.849   1.300  17.454  0.00  0.00    +0.000 A 
ATOM     32  O   UNL     1      50.631   1.158  17.465  0.00  0.00    +0.000 OA
ATOM     33  C   UNL     1      52.531   2.519  17.848  0.00  0.00    +0.000 A 
ATOM     34  H   UNL     1      52.228  -0.582  16.801  0.00  0.00    +0.000 HD
ENDBRANCH  21  24
ENDBRANCH   2  20
TORSDOF 6
ENDMDL
MODEL 6
REMARK VINA RESULT:    -6.792      2.289      3.219
REMARK INTER + INTRA:         -10.371
REMARK INTER:                  -9.180
REMARK INTRA:                  -1.191
REMARK UNBOUND:                -1.197
REMARK  Name = 
REMARK  7 active torsions:
REMARK  status: ('A' for Active; 'I' for Inactive)
REMARK    1  A    between atoms: C_1  and  C_2
REMARK    2  A    between atoms: C_2  and  N_3
REMARK    3  A    between atoms: C_2  and  C_16
REMARK    4  A    between atoms: C_4  and  C_6
REMARK    5  A    between atoms: C_19  and  C_20
REMARK    6  A    between atoms: C_20  and  N_21
REMARK    7  A    between atoms: C_22  and  C_24
REMARK                            x       y       z     vdW  Elec       q    Type
REMARK                         _______ _______ _______ _____ _____    ______ ____
ROOT
ATOM      1  C   UNL     1      47.951   3.135  15.814  0.00  0.00    +0.000 C 
ATOM      2  C   UNL     1      47.232   4.485  15.864  0.00  0.00    +0.000 C 
ENDROOT
BRANCH   2   3
ATOM      3  C   UNL     1      46.733   4.878  14.476  0.00  0.00    +0.000 A 
ATOM      4  C   UNL     1      45.528   4.367  13.975  0.00  0.00    +0.000 A 
ATOM      5  C   UNL     1      45.058   4.750  12.710  0.00  0.00    +0.000 A 
ATOM      6  C   UNL     1      45.782   5.649  11.915  0.00  0.00    +0.000 A 
ATOM      7  C   UNL     1      46.977   6.174  12.420  0.00  0.00    +0.000 A 
ATOM      8  C   UNL     1      47.448   5.789  13.680  0.00  0.00    +0.000 A 
BRANCH   6   9
ATOM      9  C   UNL     1      45.292   6.037  10.542  0.00  0.00    +0.000 C 
BRANCH   9  10
ATOM     10  N   UNL     1      45.837   5.206   9.496  0.00  0.00    +0.000 N 
ATOM     11  C   UNL     1      45.201   4.048   9.095  0.00  0.00    +0.000 C 
ATOM     12  O   UNL     1      44.147   3.648   9.577  0.00  0.00    +0.000 OA
ATOM     13  H   UNL     1      46.650   5.508   8.966  0.00  0.00    +0.000 HD
BRANCH  11  14
ATOM     14  C   UNL     1      45.886   3.286   8.011  0.00  0.00    +0.000 A 
ATOM     15  C   UNL     1      46.188   1.941   8.189  0.00  0.00    +0.000 A 
ATOM     16  N   UNL     1      46.829   1.207   7.241  0.00  0.00    +0.000 NA
ATOM     17  C   UNL     1      47.157   1.881   6.115  0.00  0.00    +0.000 A 
ATOM     18  C   UNL     1      46.855   3.222   5.936  0.00  0.00    +0.000 A 
ATOM     19  N   UNL     1      46.210   3.964   6.870  0.00  0.00    +0.000 NA
ENDBRANCH  11  14
ENDBRANCH   9  10
ENDBRANCH   6   9
ENDBRANCH   2   3
BRANCH   2  20
ATOM     20  N   UNL     1      48.085   5.547  16.367  0.00  0.00    +0.000 N 
ATOM     21  C   UNL     1      48.156   5.932  17.684  0.00  0.00    +0.000 C 
ATOM     22  O   UNL     1      47.534   5.378  18.582  0.00  0.00    +0.000 OA
ATOM     23  H   UNL     1      48.350   6.237  15.672  0.00  0.00    +0.000 HD
BRANCH  21  24
ATOM     24  C   UNL     1      49.108   7.014  17.965  0.00  0.00    +0.000 A 
ATOM     25  C   UNL     1      48.656   8.237  18.442  0.00  0.00    +0.000 A 
ATOM     26  S   UNL     1      49.916   9.340  18.778  0.00  0.00    +0.000 S 
ATOM     27  C   UNL     1      51.100   8.240  18.245  0.00  0.00    +0.000 A 
ATOM     28  N   UNL     1      52.421   8.568  18.248  0.00  0.00    +0.000 NA
ATOM     29  C   UNL     1      53.200   7.645  17.790  0.00  0.00    +0.000 A 
ATOM     30  N   UNL     1      52.782   6.423  17.334  0.00  0.00    +0.000 N 
ATOM     31  C   UNL     1      51.464   6.039  17.335  0.00  0.00    +0.000 A 
ATOM     32  O   UNL     1      51.126   4.923  16.957  0.00  0.00    +0.000 OA
ATOM     33  C   UNL     1      50.543   7.044  17.833  0.00  0.00    +0.000 A 
ATOM     34  H   UNL     1      53.440   5.737  16.996  0.00  0.00    +0.000 HD
ENDBRANCH  21  24
ENDBRANCH   2  20
TORSDOF 6
ENDMDL
MODEL 7
REMARK VINA RESULT:    -6.734      3.502      9.406
REMARK INTER + INTRA:         -10.293
REMARK INTER:                  -9.297
REMARK INTRA:                  -0.996
REMARK UNBOUND:                -1.197
REMARK  Name = 
REMARK  7 active torsions:
REMARK  status: ('A' for Active; 'I' for Inactive)
REMARK    1  A    between atoms: C_1  and  C_2
REMARK    2  A    between atoms: C_2  and  N_3
REMARK    3  A    between atoms: C_2  and  C_16
REMARK    4  A    between atoms: C_4  and  C_6
REMARK    5  A    between atoms: C_19  and  C_20
REMARK    6  A    between atoms: C_20  and  N_21
REMARK    7  A    between atoms: C_22  and  C_24
REMARK                            x       y       z     vdW  Elec       q    Type
REMARK                         _______ _______ _______ _____ _____    ______ ____
ROOT
ATOM      1  C   UNL     1      48.431   8.209  11.379  0.00  0.00    +0.000 C 
ATOM      2  C   UNL     1      47.575   7.784  12.575  0.00  0.00    +0.000 C 
ENDROOT
BRANCH   2   3
ATOM      3  C   UNL     1      48.454   7.529  13.798  0.00  0.00    +0.000 A 
ATOM      4  C   UNL     1      48.128   6.526  14.720  0.00  0.00    +0.000 A 
ATOM      5  C   UNL     1      48.951   6.276  15.828  0.00  0.00    +0.000 A 
ATOM      6  C   UNL     1      50.116   7.024  16.043  0.00  0.00    +0.000 A 
ATOM      7  C   UNL     1      50.453   8.015  15.114  0.00  0.00    +0.000 A 
ATOM      8  C   UNL     1      49.631   8.268  14.011  0.00  0.00    +0.000 A 
BRANCH   6   9
ATOM      9  C   UNL     1      50.985   6.776  17.251  0.00  0.00    +0.000 C 
BRANCH   9  10
ATOM     10  N   UNL     1      51.557   5.452  17.268  0.00  0.00    +0.000 N 
ATOM     11  C   UNL     1      50.993   4.436  18.012  0.00  0.00    +0.000 C 
ATOM     12  O   UNL     1      49.982   4.571  18.694  0.00  0.00    +0.000 OA
ATOM     13  H   UNL     1      52.332   5.216  16.655  0.00  0.00    +0.000 HD
BRANCH  11  14
ATOM     14  C   UNL     1      51.699   3.124  17.941  0.00  0.00    +0.000 A 
ATOM     15  C   UNL     1      51.047   2.010  17.425  0.00  0.00    +0.000 A 
ATOM     16  N   UNL     1      51.638   0.787  17.359  0.00  0.00    +0.000 NA
ATOM     17  C   UNL     1      52.903   0.732  17.836  0.00  0.00    +0.000 A 
ATOM     18  C   UNL     1      53.553   1.843  18.350  0.00  0.00    +0.000 A 
ATOM     19  N   UNL     1      52.978   3.069  18.416  0.00  0.00    +0.000 NA
ENDBRANCH  11  14
ENDBRANCH   9  10
ENDBRANCH   6   9
ENDBRANCH   2   3
BRANCH   2  20
ATOM     20  N   UNL     1      46.801   6.587  12.304  0.00  0.00    +0.000 N 
ATOM     21  C   UNL     1      45.456   6.577  12.023  0.00  0.00    +0.000 C 
ATOM     22  O   UNL     1      44.780   7.592  11.927  0.00  0.00    +0.000 OA
ATOM     23  H   UNL     1      47.197   5.735  12.686  0.00  0.00    +0.000 HD
BRANCH  21  24
ATOM     24  C   UNL     1      44.888   5.249  11.756  0.00  0.00    +0.000 A 
ATOM     25  C   UNL     1      44.184   4.577  12.747  0.00  0.00    +0.000 A 
ATOM     26  S   UNL     1      43.538   3.085  12.226  0.00  0.00    +0.000 S 
ATOM     27  C   UNL     1      44.225   3.261  10.678  0.00  0.00    +0.000 A 
ATOM     28  N   UNL     1      44.069   2.305   9.723  0.00  0.00    +0.000 NA
ATOM     29  C   UNL     1      44.668   2.562   8.609  0.00  0.00    +0.000 A 
ATOM     30  N   UNL     1      45.405   3.690   8.358  0.00  0.00    +0.000 N 
ATOM     31  C   UNL     1      45.569   4.692   9.282  0.00  0.00    +0.000 A 
ATOM     32  O   UNL     1      46.202   5.707   9.014  0.00  0.00    +0.000 OA
ATOM     33  C   UNL     1      44.921   4.449  10.558  0.00  0.00    +0.000 A 
ATOM     34  H   UNL     1      45.844   3.840   7.463  0.00  0.00    +0.000 HD
ENDBRANCH  21  24
ENDBRANCH   2  20
TORSDOF 6
ENDMDL
MODEL 8
REMARK VINA RESULT:    -6.659      1.672      2.151
REMARK INTER + INTRA:         -10.192
REMARK INTER:                  -9.050
REMARK INTRA:                  -1.142
REMARK UNBOUND:                -1.197
REMARK  Name = 
REMARK  7 active torsions:
REMARK  status: ('A' for Active; 'I' for Inactive)
REMARK    1  A    between atoms: C_1  and  C_2
REMARK    2  A    between atoms: C_2  and  N_3
REMARK    3  A    between atoms: C_2  and  C_16
REMARK    4  A    between atoms: C_4  and  C_6
REMARK    5  A    between atoms: C_19  and  C_20
REMARK    6  A    between atoms: C_20  and  N_21
REMARK    7  A    between atoms: C_22  and  C_24
REMARK                            x       y       z     vdW  Elec       q    Type
REMARK                         _______ _______ _______ _____ _____    ______ ____
ROOT
ATOM      1  C   UNL     1      49.074   9.952  14.481  0.00  0.00    +0.000 C 
ATOM      2  C   UNL     1      48.758   8.496  14.835  0.00  0.00    +0.000 C 
ENDROOT
BRANCH   2   3
ATOM      3  C   UNL     1      47.679   7.942  13.908  0.00  0.00    +0.000 A 
ATOM      4  C   UNL     1      47.670   6.589  13.545  0.00  0.00    +0.000 A 
ATOM      5  C   UNL     1      46.661   6.077  12.715  0.00  0.00    +0.000 A 
ATOM      6  C   UNL     1      45.642   6.904  12.225  0.00  0.00    +0.000 A 
ATOM      7  C   UNL     1      45.640   8.253  12.600  0.00  0.00    +0.000 A 
ATOM      8  C   UNL     1      46.647   8.765  13.425  0.00  0.00    +0.000 A 
BRANCH   6   9
ATOM      9  C   UNL     1      44.575   6.360  11.307  0.00  0.00    +0.000 C 
BRANCH   9  10
ATOM     10  N   UNL     1      45.113   5.557  10.237  0.00  0.00    +0.000 N 
ATOM     11  C   UNL     1      44.786   4.222  10.108  0.00  0.00    +0.000 C 
ATOM     12  O   UNL     1      44.028   3.630  10.869  0.00  0.00    +0.000 OA
ATOM     13  H   UNL     1      45.666   5.983   9.498  0.00  0.00    +0.000 HD
BRANCH  11  14
ATOM     14  C   UNL     1      45.424   3.516   8.960  0.00  0.00    +0.000 A 
ATOM     15  C   UNL     1      45.551   2.132   8.977  0.00  0.00    +0.000 A 
ATOM     16  N   UNL     1      46.143   1.442   7.966  0.00  0.00    +0.000 NA
ATOM     17  C   UNL     1      46.606   2.201   6.945  0.00  0.00    +0.000 A 
ATOM     18  C   UNL     1      46.479   3.580   6.927  0.00  0.00    +0.000 A 
ATOM     19  N   UNL     1      45.884   4.280   7.925  0.00  0.00    +0.000 NA
ENDBRANCH  11  14
ENDBRANCH   9  10
ENDBRANCH   6   9
ENDBRANCH   2   3
BRANCH   2  20
ATOM     20  N   UNL     1      48.312   8.345  16.208  0.00  0.00    +0.000 N 
ATOM     21  C   UNL     1      49.149   8.170  17.284  0.00  0.00    +0.000 C 
ATOM     22  O   UNL     1      50.369   8.171  17.195  0.00  0.00    +0.000 OA
ATOM     23  H   UNL     1      47.361   8.006  16.305  0.00  0.00    +0.000 HD
BRANCH  21  24
ATOM     24  C   UNL     1      48.474   8.065  18.584  0.00  0.00    +0.000 A 
ATOM     25  C   UNL     1      48.490   6.866  19.286  0.00  0.00    +0.000 A 
ATOM     26  S   UNL     1      47.719   6.961  20.806  0.00  0.00    +0.000 S 
ATOM     27  C   UNL     1      47.289   8.589  20.552  0.00  0.00    +0.000 A 
ATOM     28  N   UNL     1      46.579   9.285  21.481  0.00  0.00    +0.000 NA
ATOM     29  C   UNL     1      46.303  10.499  21.140  0.00  0.00    +0.000 A 
ATOM     30  N   UNL     1      46.675  11.085  19.958  0.00  0.00    +0.000 N 
ATOM     31  C   UNL     1      47.412  10.430  19.003  0.00  0.00    +0.000 A 
ATOM     32  O   UNL     1      47.762  10.993  17.972  0.00  0.00    +0.000 OA
ATOM     33  C   UNL     1      47.744   9.056  19.333  0.00  0.00    +0.000 A 
ATOM     34  H   UNL     1      46.437  12.042  19.751  0.00  0.00    +0.000 HD
ENDBRANCH  21  24
ENDBRANCH   2  20
TORSDOF 6
ENDMDL
MODEL 9
REMARK VINA RESULT:    -6.627      3.820      9.158
REMARK INTER + INTRA:         -10.148
REMARK INTER:                  -9.052
REMARK INTRA:                  -1.096
REMARK UNBOUND:                -1.197
REMARK  Name = 
REMARK  7 active torsions:
REMARK  status: ('A' for Active; 'I' for Inactive)
REMARK    1  A    between atoms: C_1  and  C_2
REMARK    2  A    between atoms: C_2  and  N_3
REMARK    3  A    between atoms: C_2  and  C_16
REMARK    4  A    between atoms: C_4  and  C_6
REMARK    5  A    between atoms: C_19  and  C_20
REMARK    6  A    between atoms: C_20  and  N_21
REMARK    7  A    between atoms: C_22  and  C_24
REMARK                            x       y       z     vdW  Elec       q    Type
REMARK                         _______ _______ _______ _____ _____    ______ ____
ROOT
ATOM      1  C   UNL     1      48.786   8.645  11.783  0.00  0.00    +0.000 C 
ATOM      2  C   UNL     1      47.644   8.047  12.609  0.00  0.00    +0.000 C 
ENDROOT
BRANCH   2   3
ATOM      3  C   UNL     1      48.155   7.575  13.968  0.00  0.00    +0.000 A 
ATOM      4  C   UNL     1      47.932   6.262  14.403  0.00  0.00    +0.000 A 
ATOM      5  C   UNL     1      48.426   5.823  15.640  0.00  0.00    +0.000 A 
ATOM      6  C   UNL     1      49.150   6.686  16.474  0.00  0.00    +0.000 A 
ATOM      7  C   UNL     1      49.388   7.994  16.034  0.00  0.00    +0.000 A 
ATOM      8  C   UNL     1      48.893   8.433  14.802  0.00  0.00    +0.000 A 
BRANCH   6   9
ATOM      9  C   UNL     1      49.654   6.224  17.818  0.00  0.00    +0.000 C 
BRANCH   9  10
ATOM     10  N   UNL     1      50.200   4.889  17.784  0.00  0.00    +0.000 N 
ATOM     11  C   UNL     1      51.551   4.662  17.953  0.00  0.00    +0.000 C 
ATOM     12  O   UNL     1      52.372   5.552  18.147  0.00  0.00    +0.000 OA
ATOM     13  H   UNL     1      49.586   4.081  17.733  0.00  0.00    +0.000 HD
BRANCH  11  14
ATOM     14  C   UNL     1      51.973   3.233  17.884  0.00  0.00    +0.000 A 
ATOM     15  C   UNL     1      51.079   2.264  17.444  0.00  0.00    +0.000 A 
ATOM     16  N   UNL     1      51.407   0.946  17.383  0.00  0.00    +0.000 NA
ATOM     17  C   UNL     1      52.663   0.645  17.787  0.00  0.00    +0.000 A 
ATOM     18  C   UNL     1      53.555   1.612  18.225  0.00  0.00    +0.000 A 
ATOM     19  N   UNL     1      53.243   2.930  18.285  0.00  0.00    +0.000 NA
ENDBRANCH  11  14
ENDBRANCH   9  10
ENDBRANCH   6   9
ENDBRANCH   2   3
BRANCH   2  20
ATOM     20  N   UNL     1      47.005   6.927  11.940  0.00  0.00    +0.000 N 
ATOM     21  C   UNL     1      45.752   6.968  11.378  0.00  0.00    +0.000 C 
ATOM     22  O   UNL     1      45.062   7.978  11.344  0.00  0.00    +0.000 OA
ATOM     23  H   UNL     1      47.354   6.017  12.220  0.00  0.00    +0.000 HD
BRANCH  21  24
ATOM     24  C   UNL     1      45.321   5.721  10.733  0.00  0.00    +0.000 A 
ATOM     25  C   UNL     1      45.594   5.497   9.390  0.00  0.00    +0.000 A 
ATOM     26  S   UNL     1      45.079   3.965   8.841  0.00  0.00    +0.000 S 
ATOM     27  C   UNL     1      44.427   3.573  10.363  0.00  0.00    +0.000 A 
ATOM     28  N   UNL     1      43.804   2.383  10.580  0.00  0.00    +0.000 NA
ATOM     29  C   UNL     1      43.335   2.236  11.774  0.00  0.00    +0.000 A 
ATOM     30  N   UNL     1      43.434   3.167  12.774  0.00  0.00    +0.000 N 
ATOM     31  C   UNL     1      44.073   4.371  12.609  0.00  0.00    +0.000 A 
ATOM     32  O   UNL     1      44.179   5.168  13.535  0.00  0.00    +0.000 OA
ATOM     33  C   UNL     1      44.614   4.590  11.280  0.00  0.00    +0.000 A 
ATOM     34  H   UNL     1      43.054   2.993  13.691  0.00  0.00    +0.000 HD
ENDBRANCH  21  24
ENDBRANCH   2  20
TORSDOF 6
ENDMDL
