MODEL 1
REMARK VINA RESULT:    -6.304      0.000      0.000
REMARK INTER + INTRA:         -10.348
REMARK INTER:                  -9.253
REMARK INTRA:                  -1.096
REMARK UNBOUND:                -1.096
REMARK  Name = 
REMARK  9 active torsions:
REMARK  status: ('A' for Active; 'I' for Inactive)
REMARK    1  A    between atoms: C_1  and  O_2
REMARK    2  A    between atoms: O_2  and  C_3
REMARK    3  A    between atoms: C_3  and  C_4
REMARK    4  A    between atoms: C_4  and  N_5
REMARK    5  A    between atoms: N_5  and  C_6
REMARK    6  A    between atoms: C_6  and  C_7
REMARK    7  A    between atoms: C_10  and  C_11
REMARK    8  A    between atoms: C_11  and  N_12
REMARK    9  A    between atoms: C_20  and  C_22
REMARK                            x       y       z     vdW  Elec       q    Type
REMARK                         _______ _______ _______ _____ _____    ______ ____
ROOT
ATOM      1  N   UNL     1      45.765   4.533  13.511  0.00  0.00    +0.000 N 
ATOM      2  C   UNL     1      47.075   4.254  13.971  0.00  0.00    +0.000 C 
ATOM      3  O   UNL     1      47.653   3.212  13.660  0.00  0.00    +0.000 OA
ENDROOT
BRANCH   2   4
ATOM      4  C   UNL     1      47.792   5.208  14.857  0.00  0.00    +0.000 A 
ATOM      5  C   UNL     1      48.514   6.318  14.443  0.00  0.00    +0.000 A 
ATOM      6  S   UNL     1      49.155   7.250  15.726  0.00  0.00    +0.000 S 
ATOM      7  C   UNL     1      48.368   6.291  16.884  0.00  0.00    +0.000 A 
ATOM      8  N   UNL     1      48.416   6.613  18.205  0.00  0.00    +0.000 NA
ATOM      9  C   UNL     1      47.725   5.829  18.968  0.00  0.00    +0.000 A 
ATOM     10  N   UNL     1      47.037   4.721  18.538  0.00  0.00    +0.000 N 
ATOM     11  C   UNL     1      47.081   4.280  17.228  0.00  0.00    +0.000 A 
ATOM     12  O   UNL     1      46.683   3.159  16.941  0.00  0.00    +0.000 OA
ATOM     13  C   UNL     1      47.728   5.209  16.308  0.00  0.00    +0.000 A 
ATOM     14  H   UNL     1      46.604   4.089  19.200  0.00  0.00    +0.000 HD
ENDBRANCH   2   4
BRANCH   1  15
ATOM     15  C   UNL     1      45.128   3.618  12.544  0.00  0.00    +0.000 C 
BRANCH  15  16
ATOM     16  C   UNL     1      43.597   3.443  12.565  0.00  0.00    +0.000 C 
BRANCH  16  18
ATOM     17  C   UNL     1      44.086   3.161  10.292  0.00  0.00    +0.000 C 
ATOM     18  O   UNL     1      43.081   3.026  11.296  0.00  0.00    +0.000 OA
ENDBRANCH  16  18
ENDBRANCH  15  16
ENDBRANCH   1  15
BRANCH   1  19
ATOM     19  C   UNL     1      45.233   5.877  13.632  0.00  0.00    +0.000 C 
BRANCH  19  20
ATOM     20  C   UNL     1      45.358   6.912  12.538  0.00  0.00    +0.000 A 
ATOM     21  C   UNL     1      44.492   6.852  11.439  0.00  0.00    +0.000 A 
ATOM     22  C   UNL     1      44.033   8.035  10.876  0.00  0.00    +0.000 A 
ATOM     23  C   UNL     1      44.425   9.260  11.430  0.00  0.00    +0.000 A 
ATOM     24  C   UNL     1      45.514   9.297  12.309  0.00  0.00    +0.000 A 
ATOM     25  C   UNL     1      46.013   8.112  12.838  0.00  0.00    +0.000 A 
BRANCH  23  26
ATOM     26  C   UNL     1      43.615  10.498  11.142  0.00  0.00    +0.000 C 
BRANCH  26  27
ATOM     27  N   UNL     1      42.478  10.327  10.208  0.00  0.00    +0.000 NA
ATOM     28  C   UNL     1      42.264  11.324   9.132  0.00  0.00    +0.000 C 
ATOM     29  C   UNL     1      41.443  12.608   9.448  0.00  0.00    +0.000 C 
ATOM     30  O   UNL     1      40.389  12.437  10.406  0.00  0.00    +0.000 OA
ATOM     31  C   UNL     1      40.824  11.644  11.509  0.00  0.00    +0.000 C 
ATOM     32  C   UNL     1      41.222  10.257  10.987  0.00  0.00    +0.000 C 
ENDBRANCH  26  27
ENDBRANCH  23  26
ENDBRANCH  19  20
ENDBRANCH   1  19
TORSDOF 8
ENDMDL
MODEL 2
REMARK VINA RESULT:    -6.285      3.322      5.195
REMARK INTER + INTRA:         -10.320
REMARK INTER:                  -9.188
REMARK INTRA:                  -1.132
REMARK UNBOUND:                -1.096
REMARK  Name = 
REMARK  9 active torsions:
REMARK  status: ('A' for Active; 'I' for Inactive)
REMARK    1  A    between atoms: C_1  and  O_2
REMARK    2  A    between atoms: O_2  and  C_3
REMARK    3  A    between atoms: C_3  and  C_4
REMARK    4  A    between atoms: C_4  and  N_5
REMARK    5  A    between atoms: N_5  and  C_6
REMARK    6  A    between atoms: C_6  and  C_7
REMARK    7  A    between atoms: C_10  and  C_11
REMARK    8  A    between atoms: C_11  and  N_12
REMARK    9  A    between atoms: C_20  and  C_22
REMARK                            x       y       z     vdW  Elec       q    Type
REMARK                         _______ _______ _______ _____ _____    ______ ____
ROOT
ATOM      1  N   UNL     1      45.735   4.569  13.566  0.00  0.00    +0.000 N 
ATOM      2  C   UNL     1      46.972   4.202  14.151  0.00  0.00    +0.000 C 
ATOM      3  O   UNL     1      47.457   3.084  13.970  0.00  0.00    +0.000 OA
ENDROOT
BRANCH   2   4
ATOM      4  C   UNL     1      47.720   5.153  15.014  0.00  0.00    +0.000 A 
ATOM      5  C   UNL     1      48.465   6.238  14.575  0.00  0.00    +0.000 A 
ATOM      6  S   UNL     1      49.140   7.175  15.836  0.00  0.00    +0.000 S 
ATOM      7  C   UNL     1      48.343   6.254  17.017  0.00  0.00    +0.000 A 
ATOM      8  N   UNL     1      48.413   6.595  18.332  0.00  0.00    +0.000 NA
ATOM      9  C   UNL     1      47.711   5.840  19.115  0.00  0.00    +0.000 A 
ATOM     10  N   UNL     1      46.993   4.743  18.710  0.00  0.00    +0.000 N 
ATOM     11  C   UNL     1      47.012   4.280  17.407  0.00  0.00    +0.000 A 
ATOM     12  O   UNL     1      46.585   3.164  17.142  0.00  0.00    +0.000 OA
ATOM     13  C   UNL     1      47.672   5.178  16.465  0.00  0.00    +0.000 A 
ATOM     14  H   UNL     1      46.552   4.132  19.387  0.00  0.00    +0.000 HD
ENDBRANCH   2   4
BRANCH   1  15
ATOM     15  C   UNL     1      45.077   3.643  12.626  0.00  0.00    +0.000 C 
BRANCH  15  16
ATOM     16  C   UNL     1      43.589   3.848  12.281  0.00  0.00    +0.000 C 
BRANCH  16  18
ATOM     17  C   UNL     1      44.235   2.933  10.224  0.00  0.00    +0.000 C 
ATOM     18  O   UNL     1      43.173   3.044  11.171  0.00  0.00    +0.000 OA
ENDBRANCH  16  18
ENDBRANCH  15  16
ENDBRANCH   1  15
BRANCH   1  19
ATOM     19  C   UNL     1      45.342   5.965  13.538  0.00  0.00    +0.000 C 
BRANCH  19  20
ATOM     20  C   UNL     1      45.911   6.960  12.552  0.00  0.00    +0.000 A 
ATOM     21  C   UNL     1      45.981   8.312  12.912  0.00  0.00    +0.000 A 
ATOM     22  C   UNL     1      47.067   9.066  12.492  0.00  0.00    +0.000 A 
ATOM     23  C   UNL     1      48.080   8.458  11.739  0.00  0.00    +0.000 A 
ATOM     24  C   UNL     1      47.836   7.215  11.142  0.00  0.00    +0.000 A 
ATOM     25  C   UNL     1      46.721   6.476  11.520  0.00  0.00    +0.000 A 
BRANCH  23  26
ATOM     26  C   UNL     1      49.438   9.106  11.661  0.00  0.00    +0.000 C 
BRANCH  26  27
ATOM     27  N   UNL     1      50.576   8.288  12.139  0.00  0.00    +0.000 NA
ATOM     28  C   UNL     1      51.453   8.817  13.213  0.00  0.00    +0.000 C 
ATOM     29  C   UNL     1      52.646   9.738  12.824  0.00  0.00    +0.000 C 
ATOM     30  O   UNL     1      53.257   9.443  11.560  0.00  0.00    +0.000 OA
ATOM     31  C   UNL     1      52.271   9.185  10.562  0.00  0.00    +0.000 C 
ATOM     32  C   UNL     1      51.450   7.961  10.992  0.00  0.00    +0.000 C 
ENDBRANCH  26  27
ENDBRANCH  23  26
ENDBRANCH  19  20
ENDBRANCH   1  19
TORSDOF 8
ENDMDL
MODEL 3
REMARK VINA RESULT:    -6.061      3.634      5.732
REMARK INTER + INTRA:          -9.991
REMARK INTER:                  -8.517
REMARK INTRA:                  -1.474
REMARK UNBOUND:                -1.096
REMARK  Name = 
REMARK  9 active torsions:
REMARK  status: ('A' for Active; 'I' for Inactive)
REMARK    1  A    between atoms: C_1  and  O_2
REMARK    2  A    between atoms: O_2  and  C_3
REMARK    3  A    between atoms: C_3  and  C_4
REMARK    4  A    between atoms: C_4  and  N_5
REMARK    5  A    between atoms: N_5  and  C_6
REMARK    6  A    between atoms: C_6  and  C_7
REMARK    7  A    between atoms: C_10  and  C_11
REMARK    8  A    between atoms: C_11  and  N_12
REMARK    9  A    between atoms: C_20  and  C_22
REMARK                            x       y       z     vdW  Elec       q    Type
REMARK                         _______ _______ _______ _____ _____    ______ ____
ROOT
ATOM      1  N   UNL     1      50.076   8.419  14.306  0.00  0.00    +0.000 N 
ATOM      2  C   UNL     1      50.584   8.344  15.626  0.00  0.00    +0.000 C 
ATOM      3  O   UNL     1      51.788   8.197  15.839  0.00  0.00    +0.000 OA
ENDROOT
BRANCH   2   4
ATOM      4  C   UNL     1      49.676   8.429  16.799  0.00  0.00    +0.000 A 
ATOM      5  C   UNL     1      49.215   9.597  17.390  0.00  0.00    +0.000 A 
ATOM      6  S   UNL     1      48.122   9.342  18.680  0.00  0.00    +0.000 S 
ATOM      7  C   UNL     1      48.108   7.667  18.404  0.00  0.00    +0.000 A 
ATOM      8  N   UNL     1      47.280   6.851  19.111  0.00  0.00    +0.000 NA
ATOM      9  C   UNL     1      47.331   5.607  18.757  0.00  0.00    +0.000 A 
ATOM     10  N   UNL     1      48.175   5.097  17.801  0.00  0.00    +0.000 N 
ATOM     11  C   UNL     1      49.129   5.869  17.163  0.00  0.00    +0.000 A 
ATOM     12  O   UNL     1      50.027   5.335  16.525  0.00  0.00    +0.000 OA
ATOM     13  C   UNL     1      49.013   7.299  17.425  0.00  0.00    +0.000 A 
ATOM     14  H   UNL     1      48.241   4.099  17.646  0.00  0.00    +0.000 HD
ENDBRANCH   2   4
BRANCH   1  15
ATOM     15  C   UNL     1      51.016   8.445  13.170  0.00  0.00    +0.000 C 
BRANCH  15  16
ATOM     16  C   UNL     1      50.465   8.572  11.736  0.00  0.00    +0.000 C 
BRANCH  16  18
ATOM     17  C   UNL     1      51.895   7.402  10.296  0.00  0.00    +0.000 C 
ATOM     18  O   UNL     1      50.641   7.369  10.978  0.00  0.00    +0.000 OA
ENDBRANCH  16  18
ENDBRANCH  15  16
ENDBRANCH   1  15
BRANCH   1  19
ATOM     19  C   UNL     1      48.723   8.895  14.084  0.00  0.00    +0.000 C 
BRANCH  19  20
ATOM     20  C   UNL     1      47.549   7.966  13.875  0.00  0.00    +0.000 A 
ATOM     21  C   UNL     1      46.383   8.464  13.282  0.00  0.00    +0.000 A 
ATOM     22  C   UNL     1      45.663   7.648  12.420  0.00  0.00    +0.000 A 
ATOM     23  C   UNL     1      46.127   6.356  12.144  0.00  0.00    +0.000 A 
ATOM     24  C   UNL     1      47.101   5.787  12.973  0.00  0.00    +0.000 A 
ATOM     25  C   UNL     1      47.791   6.588  13.877  0.00  0.00    +0.000 A 
BRANCH  23  26
ATOM     26  C   UNL     1      45.640   5.640  10.910  0.00  0.00    +0.000 C 
BRANCH  26  27
ATOM     27  N   UNL     1      44.187   5.356  10.856  0.00  0.00    +0.000 NA
ATOM     28  C   UNL     1      43.515   4.774  12.043  0.00  0.00    +0.000 C 
ATOM     29  C   UNL     1      43.522   3.229  12.230  0.00  0.00    +0.000 C 
ATOM     30  O   UNL     1      43.487   2.468  11.014  0.00  0.00    +0.000 OA
ATOM     31  C   UNL     1      44.371   3.019  10.039  0.00  0.00    +0.000 C 
ATOM     32  C   UNL     1      43.916   4.449   9.720  0.00  0.00    +0.000 C 
ENDBRANCH  26  27
ENDBRANCH  23  26
ENDBRANCH  19  20
ENDBRANCH   1  19
TORSDOF 8
ENDMDL
MODEL 4
REMARK VINA RESULT:    -6.042      3.762      6.303
REMARK INTER + INTRA:          -9.963
REMARK INTER:                  -8.367
REMARK INTRA:                  -1.597
REMARK UNBOUND:                -1.096
REMARK  Name = 
REMARK  9 active torsions:
REMARK  status: ('A' for Active; 'I' for Inactive)
REMARK    1  A    between atoms: C_1  and  O_2
REMARK    2  A    between atoms: O_2  and  C_3
REMARK    3  A    between atoms: C_3  and  C_4
REMARK    4  A    between atoms: C_4  and  N_5
REMARK    5  A    between atoms: N_5  and  C_6
REMARK    6  A    between atoms: C_6  and  C_7
REMARK    7  A    between atoms: C_10  and  C_11
REMARK    8  A    between atoms: C_11  and  N_12
REMARK    9  A    between atoms: C_20  and  C_22
REMARK                            x       y       z     vdW  Elec       q    Type
REMARK                         _______ _______ _______ _____ _____    ______ ____
ROOT
ATOM      1  N   UNL     1      49.360   7.584  17.064  0.00  0.00    +0.000 N 
ATOM      2  C   UNL     1      48.503   6.616  17.643  0.00  0.00    +0.000 C 
ATOM      3  O   UNL     1      47.837   6.872  18.647  0.00  0.00    +0.000 OA
ENDROOT
BRANCH   2   4
ATOM      4  C   UNL     1      48.387   5.253  17.061  0.00  0.00    +0.000 A 
ATOM      5  C   UNL     1      47.496   4.862  16.073  0.00  0.00    +0.000 A 
ATOM      6  S   UNL     1      47.677   3.236  15.576  0.00  0.00    +0.000 S 
ATOM      7  C   UNL     1      49.048   3.035  16.556  0.00  0.00    +0.000 A 
ATOM      8  N   UNL     1      49.765   1.879  16.522  0.00  0.00    +0.000 NA
ATOM      9  C   UNL     1      50.817   1.885  17.277  0.00  0.00    +0.000 A 
ATOM     10  N   UNL     1      51.185   2.919  18.102  0.00  0.00    +0.000 N 
ATOM     11  C   UNL     1      50.407   4.050  18.270  0.00  0.00    +0.000 A 
ATOM     12  O   UNL     1      50.626   4.816  19.199  0.00  0.00    +0.000 OA
ATOM     13  C   UNL     1      49.290   4.149  17.338  0.00  0.00    +0.000 A 
ATOM     14  H   UNL     1      51.960   2.819  18.745  0.00  0.00    +0.000 HD
ENDBRANCH   2   4
BRANCH   1  15
ATOM     15  C   UNL     1      49.364   8.959  17.599  0.00  0.00    +0.000 C 
BRANCH  15  16
ATOM     16  C   UNL     1      50.358   9.332  18.715  0.00  0.00    +0.000 C 
BRANCH  16  18
ATOM     17  C   UNL     1      51.214   8.043  20.473  0.00  0.00    +0.000 C 
ATOM     18  O   UNL     1      51.222   8.243  19.060  0.00  0.00    +0.000 OA
ENDBRANCH  16  18
ENDBRANCH  15  16
ENDBRANCH   1  15
BRANCH   1  19
ATOM     19  C   UNL     1      49.888   7.368  15.730  0.00  0.00    +0.000 C 
BRANCH  19  20
ATOM     20  C   UNL     1      49.149   7.780  14.477  0.00  0.00    +0.000 A 
ATOM     21  C   UNL     1      49.265   6.989  13.327  0.00  0.00    +0.000 A 
ATOM     22  C   UNL     1      48.158   6.831  12.504  0.00  0.00    +0.000 A 
ATOM     23  C   UNL     1      46.947   7.443  12.850  0.00  0.00    +0.000 A 
ATOM     24  C   UNL     1      46.944   8.458  13.814  0.00  0.00    +0.000 A 
ATOM     25  C   UNL     1      48.068   8.658  14.608  0.00  0.00    +0.000 A 
BRANCH  23  26
ATOM     26  C   UNL     1      45.662   6.937  12.249  0.00  0.00    +0.000 C 
BRANCH  26  27
ATOM     27  N   UNL     1      45.586   5.476  12.013  0.00  0.00    +0.000 NA
ATOM     28  C   UNL     1      45.078   4.974  10.713  0.00  0.00    +0.000 C 
ATOM     29  C   UNL     1      43.543   4.798  10.522  0.00  0.00    +0.000 C 
ATOM     30  O   UNL     1      42.822   4.416  11.702  0.00  0.00    +0.000 OA
ATOM     31  C   UNL     1      43.265   5.162  12.835  0.00  0.00    +0.000 C 
ATOM     32  C   UNL     1      44.752   4.860  13.068  0.00  0.00    +0.000 C 
ENDBRANCH  26  27
ENDBRANCH  23  26
ENDBRANCH  19  20
ENDBRANCH   1  19
TORSDOF 8
ENDMDL
MODEL 5
REMARK VINA RESULT:    -6.033      3.677      6.133
REMARK INTER + INTRA:          -9.950
REMARK INTER:                  -8.375
REMARK INTRA:                  -1.576
REMARK UNBOUND:                -1.096
REMARK  Name = 
REMARK  9 active torsions:
REMARK  status: ('A' for Active; 'I' for Inactive)
REMARK    1  A    between atoms: C_1  and  O_2
REMARK    2  A    between atoms: O_2  and  C_3
REMARK    3  A    between atoms: C_3  and  C_4
REMARK    4  A    between atoms: C_4  and  N_5
REMARK    5  A    between atoms: N_5  and  C_6
REMARK    6  A    between atoms: C_6  and  C_7
REMARK    7  A    between atoms: C_10  and  C_11
REMARK    8  A    between atoms: C_11  and  N_12
REMARK    9  A    between atoms: C_20  and  C_22
REMARK                            x       y       z     vdW  Elec       q    Type
REMARK                         _______ _______ _______ _____ _____    ______ ____
ROOT
ATOM      1  N   UNL     1      48.728   8.319  17.362  0.00  0.00    +0.000 N 
ATOM      2  C   UNL     1      48.675   7.120  18.114  0.00  0.00    +0.000 C 
ATOM      3  O   UNL     1      47.813   6.945  18.977  0.00  0.00    +0.000 OA
ENDROOT
BRANCH   2   4
ATOM      4  C   UNL     1      49.668   6.036  17.894  0.00  0.00    +0.000 A 
ATOM      5  C   UNL     1      50.994   6.051  18.301  0.00  0.00    +0.000 A 
ATOM      6  S   UNL     1      51.846   4.610  17.954  0.00  0.00    +0.000 S 
ATOM      7  C   UNL     1      50.438   3.856  17.380  0.00  0.00    +0.000 A 
ATOM      8  N   UNL     1      50.449   2.545  17.013  0.00  0.00    +0.000 NA
ATOM      9  C   UNL     1      49.295   2.086  16.650  0.00  0.00    +0.000 A 
ATOM     10  N   UNL     1      48.144   2.831  16.567  0.00  0.00    +0.000 N 
ATOM     11  C   UNL     1      48.123   4.195  16.794  0.00  0.00    +0.000 A 
ATOM     12  O   UNL     1      47.154   4.861  16.454  0.00  0.00    +0.000 OA
ATOM     13  C   UNL     1      49.365   4.728  17.341  0.00  0.00    +0.000 A 
ATOM     14  H   UNL     1      47.298   2.437  16.175  0.00  0.00    +0.000 HD
ENDBRANCH   2   4
BRANCH   1  15
ATOM     15  C   UNL     1      47.661   9.324  17.527  0.00  0.00    +0.000 C 
BRANCH  15  16
ATOM     16  C   UNL     1      48.041  10.807  17.702  0.00  0.00    +0.000 C 
BRANCH  16  18
ATOM     17  C   UNL     1      46.821  10.641  19.694  0.00  0.00    +0.000 C 
ATOM     18  O   UNL     1      47.160  11.492  18.599  0.00  0.00    +0.000 OA
ENDBRANCH  16  18
ENDBRANCH  15  16
ENDBRANCH   1  15
BRANCH   1  19
ATOM     19  C   UNL     1      49.541   8.378  16.163  0.00  0.00    +0.000 C 
BRANCH  19  20
ATOM     20  C   UNL     1      48.980   8.157  14.777  0.00  0.00    +0.000 A 
ATOM     21  C   UNL     1      48.979   6.864  14.239  0.00  0.00    +0.000 A 
ATOM     22  C   UNL     1      47.910   6.462  13.449  0.00  0.00    +0.000 A 
ATOM     23  C   UNL     1      46.848   7.346  13.225  0.00  0.00    +0.000 A 
ATOM     24  C   UNL     1      47.018   8.707  13.507  0.00  0.00    +0.000 A 
ATOM     25  C   UNL     1      48.114   9.124  14.254  0.00  0.00    +0.000 A 
BRANCH  23  26
ATOM     26  C   UNL     1      45.516   6.806  12.772  0.00  0.00    +0.000 C 
BRANCH  26  27
ATOM     27  N   UNL     1      45.513   5.404  12.291  0.00  0.00    +0.000 NA
ATOM     28  C   UNL     1      45.091   5.113  10.900  0.00  0.00    +0.000 C 
ATOM     29  C   UNL     1      43.576   4.920  10.599  0.00  0.00    +0.000 C 
ATOM     30  O   UNL     1      42.815   4.321  11.657  0.00  0.00    +0.000 OA
ATOM     31  C   UNL     1      43.171   4.878  12.922  0.00  0.00    +0.000 C 
ATOM     32  C   UNL     1      44.656   4.592  13.181  0.00  0.00    +0.000 C 
ENDBRANCH  26  27
ENDBRANCH  23  26
ENDBRANCH  19  20
ENDBRANCH   1  19
TORSDOF 8
ENDMDL
MODEL 6
REMARK VINA RESULT:    -6.009      3.947      6.295
REMARK INTER + INTRA:          -9.914
REMARK INTER:                  -8.713
REMARK INTRA:                  -1.201
REMARK UNBOUND:                -1.096
REMARK  Name = 
REMARK  9 active torsions:
REMARK  status: ('A' for Active; 'I' for Inactive)
REMARK    1  A    between atoms: C_1  and  O_2
REMARK    2  A    between atoms: O_2  and  C_3
REMARK    3  A    between atoms: C_3  and  C_4
REMARK    4  A    between atoms: C_4  and  N_5
REMARK    5  A    between atoms: N_5  and  C_6
REMARK    6  A    between atoms: C_6  and  C_7
REMARK    7  A    between atoms: C_10  and  C_11
REMARK    8  A    between atoms: C_11  and  N_12
REMARK    9  A    between atoms: C_20  and  C_22
REMARK                            x       y       z     vdW  Elec       q    Type
REMARK                         _______ _______ _______ _____ _____    ______ ____
ROOT
ATOM      1  N   UNL     1      49.002   7.476  16.066  0.00  0.00    +0.000 N 
ATOM      2  C   UNL     1      48.732   6.868  17.316  0.00  0.00    +0.000 C 
ATOM      3  O   UNL     1      48.613   7.540  18.341  0.00  0.00    +0.000 OA
ENDROOT
BRANCH   2   4
ATOM      4  C   UNL     1      48.593   5.393  17.433  0.00  0.00    +0.000 A 
ATOM      5  C   UNL     1      47.408   4.677  17.350  0.00  0.00    +0.000 A 
ATOM      6  S   UNL     1      47.609   2.982  17.453  0.00  0.00    +0.000 S 
ATOM      7  C   UNL     1      49.299   3.131  17.465  0.00  0.00    +0.000 A 
ATOM      8  N   UNL     1      50.097   2.029  17.438  0.00  0.00    +0.000 NA
ATOM      9  C   UNL     1      51.364   2.292  17.393  0.00  0.00    +0.000 A 
ATOM     10  N   UNL     1      51.906   3.553  17.428  0.00  0.00    +0.000 N 
ATOM     11  C   UNL     1      51.136   4.689  17.598  0.00  0.00    +0.000 A 
ATOM     12  O   UNL     1      51.664   5.754  17.890  0.00  0.00    +0.000 OA
ATOM     13  C   UNL     1      49.699   4.454  17.512  0.00  0.00    +0.000 A 
ATOM     14  H   UNL     1      52.907   3.686  17.496  0.00  0.00    +0.000 HD
ENDBRANCH   2   4
BRANCH   1  15
ATOM     15  C   UNL     1      49.021   8.948  15.966  0.00  0.00    +0.000 C 
BRANCH  15  16
ATOM     16  C   UNL     1      50.355   9.699  16.137  0.00  0.00    +0.000 C 
BRANCH  16  18
ATOM     17  C   UNL     1      51.977   9.253  17.767  0.00  0.00    +0.000 C 
ATOM     18  O   UNL     1      51.424   8.827  16.521  0.00  0.00    +0.000 OA
ENDBRANCH  16  18
ENDBRANCH  15  16
ENDBRANCH   1  15
BRANCH   1  19
ATOM     19  C   UNL     1      48.833   6.711  14.845  0.00  0.00    +0.000 C 
BRANCH  19  20
ATOM     20  C   UNL     1      47.498   6.547  14.155  0.00  0.00    +0.000 A 
ATOM     21  C   UNL     1      47.020   7.581  13.341  0.00  0.00    +0.000 A 
ATOM     22  C   UNL     1      46.320   7.261  12.185  0.00  0.00    +0.000 A 
ATOM     23  C   UNL     1      46.126   5.917  11.846  0.00  0.00    +0.000 A 
ATOM     24  C   UNL     1      46.336   4.929  12.816  0.00  0.00    +0.000 A 
ATOM     25  C   UNL     1      46.991   5.253  14.000  0.00  0.00    +0.000 A 
BRANCH  23  26
ATOM     26  C   UNL     1      45.786   5.551  10.425  0.00  0.00    +0.000 C 
BRANCH  26  27
ATOM     27  N   UNL     1      44.347   5.355  10.131  0.00  0.00    +0.000 NA
ATOM     28  C   UNL     1      43.381   5.268  11.253  0.00  0.00    +0.000 C 
ATOM     29  C   UNL     1      43.139   3.888  11.933  0.00  0.00    +0.000 C 
ATOM     30  O   UNL     1      43.240   2.754  11.060  0.00  0.00    +0.000 OA
ATOM     31  C   UNL     1      44.366   2.874  10.192  0.00  0.00    +0.000 C 
ATOM     32  C   UNL     1      44.183   4.127   9.325  0.00  0.00    +0.000 C 
ENDBRANCH  26  27
ENDBRANCH  23  26
ENDBRANCH  19  20
ENDBRANCH   1  19
TORSDOF 8
ENDMDL
MODEL 7
REMARK VINA RESULT:    -5.852      2.482      3.091
REMARK INTER + INTRA:          -9.684
REMARK INTER:                  -8.551
REMARK INTRA:                  -1.134
REMARK UNBOUND:                -1.096
REMARK  Name = 
REMARK  9 active torsions:
REMARK  status: ('A' for Active; 'I' for Inactive)
REMARK    1  A    between atoms: C_1  and  O_2
REMARK    2  A    between atoms: O_2  and  C_3
REMARK    3  A    between atoms: C_3  and  C_4
REMARK    4  A    between atoms: C_4  and  N_5
REMARK    5  A    between atoms: N_5  and  C_6
REMARK    6  A    between atoms: C_6  and  C_7
REMARK    7  A    between atoms: C_10  and  C_11
REMARK    8  A    between atoms: C_11  and  N_12
REMARK    9  A    between atoms: C_20  and  C_22
REMARK                            x       y       z     vdW  Elec       q    Type
REMARK                         _______ _______ _______ _____ _____    ______ ____
ROOT
ATOM      1  N   UNL     1      47.105   4.739  15.033  0.00  0.00    +0.000 N 
ATOM      2  C   UNL     1      47.418   4.175  16.294  0.00  0.00    +0.000 C 
ATOM      3  O   UNL     1      46.628   3.430  16.874  0.00  0.00    +0.000 OA
ENDROOT
BRANCH   2   4
ATOM      4  C   UNL     1      48.711   4.474  16.964  0.00  0.00    +0.000 A 
ATOM      5  C   UNL     1      49.025   5.643  17.642  0.00  0.00    +0.000 A 
ATOM      6  S   UNL     1      50.576   5.634  18.363  0.00  0.00    +0.000 S 
ATOM      7  C   UNL     1      50.828   4.014  17.923  0.00  0.00    +0.000 A 
ATOM      8  N   UNL     1      51.941   3.346  18.330  0.00  0.00    +0.000 NA
ATOM      9  C   UNL     1      51.976   2.103  17.970  0.00  0.00    +0.000 A 
ATOM     10  N   UNL     1      51.027   1.484  17.195  0.00  0.00    +0.000 N 
ATOM     11  C   UNL     1      49.956   2.164  16.644  0.00  0.00    +0.000 A 
ATOM     12  O   UNL     1      49.291   1.651  15.754  0.00  0.00    +0.000 OA
ATOM     13  C   UNL     1      49.799   3.528  17.136  0.00  0.00    +0.000 A 
ATOM     14  H   UNL     1      51.166   0.539  16.860  0.00  0.00    +0.000 HD
ENDBRANCH   2   4
BRANCH   1  15
ATOM     15  C   UNL     1      45.865   4.332  14.346  0.00  0.00    +0.000 C 
BRANCH  15  16
ATOM     16  C   UNL     1      45.953   3.433  13.098  0.00  0.00    +0.000 C 
BRANCH  16  18
ATOM     17  C   UNL     1      44.160   4.013  11.707  0.00  0.00    +0.000 C 
ATOM     18  O   UNL     1      44.662   3.038  12.621  0.00  0.00    +0.000 OA
ENDBRANCH  16  18
ENDBRANCH  15  16
ENDBRANCH   1  15
BRANCH   1  19
ATOM     19  C   UNL     1      48.154   5.352  14.241  0.00  0.00    +0.000 C 
BRANCH  19  20
ATOM     20  C   UNL     1      47.961   6.641  13.475  0.00  0.00    +0.000 A 
ATOM     21  C   UNL     1      47.399   6.595  12.193  0.00  0.00    +0.000 A 
ATOM     22  C   UNL     1      46.544   7.613  11.794  0.00  0.00    +0.000 A 
ATOM     23  C   UNL     1      46.242   8.650  12.686  0.00  0.00    +0.000 A 
ATOM     24  C   UNL     1      47.043   8.832  13.819  0.00  0.00    +0.000 A 
ATOM     25  C   UNL     1      47.940   7.839  14.197  0.00  0.00    +0.000 A 
BRANCH  23  26
ATOM     26  C   UNL     1      45.012   9.489  12.458  0.00  0.00    +0.000 C 
BRANCH  26  27
ATOM     27  N   UNL     1      44.892  10.116  11.121  0.00  0.00    +0.000 NA
ATOM     28  C   UNL     1      45.374  11.505  10.923  0.00  0.00    +0.000 C 
ATOM     29  C   UNL     1      44.418  12.688  11.250  0.00  0.00    +0.000 C 
ATOM     30  O   UNL     1      43.027  12.433  11.006  0.00  0.00    +0.000 OA
ATOM     31  C   UNL     1      42.656  11.136  11.471  0.00  0.00    +0.000 C 
ATOM     32  C   UNL     1      43.474  10.089  10.702  0.00  0.00    +0.000 C 
ENDBRANCH  26  27
ENDBRANCH  23  26
ENDBRANCH  19  20
ENDBRANCH   1  19
TORSDOF 8
ENDMDL
MODEL 8
REMARK VINA RESULT:    -5.825      3.730      6.212
REMARK INTER + INTRA:          -9.645
REMARK INTER:                  -7.886
REMARK INTRA:                  -1.759
REMARK UNBOUND:                -1.096
REMARK  Name = 
REMARK  9 active torsions:
REMARK  status: ('A' for Active; 'I' for Inactive)
REMARK    1  A    between atoms: C_1  and  O_2
REMARK    2  A    between atoms: O_2  and  C_3
REMARK    3  A    between atoms: C_3  and  C_4
REMARK    4  A    between atoms: C_4  and  N_5
REMARK    5  A    between atoms: N_5  and  C_6
REMARK    6  A    between atoms: C_6  and  C_7
REMARK    7  A    between atoms: C_10  and  C_11
REMARK    8  A    between atoms: C_11  and  N_12
REMARK    9  A    between atoms: C_20  and  C_22
REMARK                            x       y       z     vdW  Elec       q    Type
REMARK                         _______ _______ _______ _____ _____    ______ ____
ROOT
ATOM      1  N   UNL     1      50.249   9.109  15.590  0.00  0.00    +0.000 N 
ATOM      2  C   UNL     1      50.562   8.809  16.938  0.00  0.00    +0.000 C 
ATOM      3  O   UNL     1      51.708   8.934  17.371  0.00  0.00    +0.000 OA
ENDROOT
BRANCH   2   4
ATOM      4  C   UNL     1      49.515   8.320  17.873  0.00  0.00    +0.000 A 
ATOM      5  C   UNL     1      48.850   9.083  18.821  0.00  0.00    +0.000 A 
ATOM      6  S   UNL     1      47.648   8.228  19.686  0.00  0.00    +0.000 S 
ATOM      7  C   UNL     1      47.869   6.845  18.726  0.00  0.00    +0.000 A 
ATOM      8  N   UNL     1      47.066   5.757  18.875  0.00  0.00    +0.000 NA
ATOM      9  C   UNL     1      47.309   4.799  18.040  0.00  0.00    +0.000 A 
ATOM     10  N   UNL     1      48.317   4.808  17.108  0.00  0.00    +0.000 N 
ATOM     11  C   UNL     1      49.241   5.833  17.021  0.00  0.00    +0.000 A 
ATOM     12  O   UNL     1      50.267   5.684  16.370  0.00  0.00    +0.000 OA
ATOM     13  C   UNL     1      48.923   6.994  17.843  0.00  0.00    +0.000 A 
ATOM     14  H   UNL     1      48.521   3.984  16.556  0.00  0.00    +0.000 HD
ENDBRANCH   2   4
BRANCH   1  15
ATOM     15  C   UNL     1      51.286   9.699  14.721  0.00  0.00    +0.000 C 
BRANCH  15  16
ATOM     16  C   UNL     1      52.144   8.775  13.836  0.00  0.00    +0.000 C 
BRANCH  16  18
ATOM     17  C   UNL     1      51.189  10.045  12.115  0.00  0.00    +0.000 C 
ATOM     18  O   UNL     1      51.700   8.761  12.474  0.00  0.00    +0.000 OA
ENDBRANCH  16  18
ENDBRANCH  15  16
ENDBRANCH   1  15
BRANCH   1  19
ATOM     19  C   UNL     1      48.862   9.249  15.189  0.00  0.00    +0.000 C 
BRANCH  19  20
ATOM     20  C   UNL     1      48.285   8.566  13.970  0.00  0.00    +0.000 A 
ATOM     21  C   UNL     1      48.681   7.256  13.672  0.00  0.00    +0.000 A 
ATOM     22  C   UNL     1      47.749   6.373  13.144  0.00  0.00    +0.000 A 
ATOM     23  C   UNL     1      46.430   6.801  12.944  0.00  0.00    +0.000 A 
ATOM     24  C   UNL     1      46.146   8.172  12.956  0.00  0.00    +0.000 A 
ATOM     25  C   UNL     1      47.095   9.069  13.435  0.00  0.00    +0.000 A 
BRANCH  23  26
ATOM     26  C   UNL     1      45.331   5.779  12.811  0.00  0.00    +0.000 C 
BRANCH  26  27
ATOM     27  N   UNL     1      45.592   4.663  11.871  0.00  0.00    +0.000 NA
ATOM     28  C   UNL     1      45.038   4.724  10.497  0.00  0.00    +0.000 C 
ATOM     29  C   UNL     1      43.587   4.218  10.248  0.00  0.00    +0.000 C 
ATOM     30  O   UNL     1      43.172   3.124  11.078  0.00  0.00    +0.000 OA
ATOM     31  C   UNL     1      43.577   3.326  12.431  0.00  0.00    +0.000 C 
ATOM     32  C   UNL     1      45.110   3.403  12.475  0.00  0.00    +0.000 C 
ENDBRANCH  26  27
ENDBRANCH  23  26
ENDBRANCH  19  20
ENDBRANCH   1  19
TORSDOF 8
ENDMDL
MODEL 9
REMARK VINA RESULT:    -5.713      3.682      5.960
REMARK INTER + INTRA:          -9.481
REMARK INTER:                  -7.834
REMARK INTRA:                  -1.646
REMARK UNBOUND:                -1.096
REMARK  Name = 
REMARK  9 active torsions:
REMARK  status: ('A' for Active; 'I' for Inactive)
REMARK    1  A    between atoms: C_1  and  O_2
REMARK    2  A    between atoms: O_2  and  C_3
REMARK    3  A    between atoms: C_3  and  C_4
REMARK    4  A    between atoms: C_4  and  N_5
REMARK    5  A    between atoms: N_5  and  C_6
REMARK    6  A    between atoms: C_6  and  C_7
REMARK    7  A    between atoms: C_10  and  C_11
REMARK    8  A    between atoms: C_11  and  N_12
REMARK    9  A    between atoms: C_20  and  C_22
REMARK                            x       y       z     vdW  Elec       q    Type
REMARK                         _______ _______ _______ _____ _____    ______ ____
ROOT
ATOM      1  N   UNL     1      50.620   8.213  14.660  0.00  0.00    +0.000 N 
ATOM      2  C   UNL     1      50.911   8.125  16.043  0.00  0.00    +0.000 C 
ATOM      3  O   UNL     1      51.524   9.021  16.624  0.00  0.00    +0.000 OA
ENDROOT
BRANCH   2   4
ATOM      4  C   UNL     1      50.495   6.940  16.837  0.00  0.00    +0.000 A 
ATOM      5  C   UNL     1      51.229   5.775  17.007  0.00  0.00    +0.000 A 
ATOM      6  S   UNL     1      50.492   4.633  18.045  0.00  0.00    +0.000 S 
ATOM      7  C   UNL     1      49.237   5.711  18.424  0.00  0.00    +0.000 A 
ATOM      8  N   UNL     1      48.300   5.389  19.357  0.00  0.00    +0.000 NA
ATOM      9  C   UNL     1      47.436   6.326  19.586  0.00  0.00    +0.000 A 
ATOM     10  N   UNL     1      47.392   7.530  18.929  0.00  0.00    +0.000 N 
ATOM     11  C   UNL     1      48.237   7.836  17.878  0.00  0.00    +0.000 A 
ATOM     12  O   UNL     1      47.997   8.792  17.152  0.00  0.00    +0.000 OA
ATOM     13  C   UNL     1      49.314   6.873  17.679  0.00  0.00    +0.000 A 
ATOM     14  H   UNL     1      46.627   8.176  19.081  0.00  0.00    +0.000 HD
ENDBRANCH   2   4
BRANCH   1  15
ATOM     15  C   UNL     1      50.947   9.452  13.928  0.00  0.00    +0.000 C 
BRANCH  15  16
ATOM     16  C   UNL     1      52.031   9.418  12.833  0.00  0.00    +0.000 C 
BRANCH  16  18
ATOM     17  C   UNL     1      50.539  10.165  11.189  0.00  0.00    +0.000 C 
ATOM     18  O   UNL     1      51.484   9.153  11.536  0.00  0.00    +0.000 OA
ENDBRANCH  16  18
ENDBRANCH  15  16
ENDBRANCH   1  15
BRANCH   1  19
ATOM     19  C   UNL     1      49.647   7.311  14.073  0.00  0.00    +0.000 C 
BRANCH  19  20
ATOM     20  C   UNL     1      48.535   7.780  13.163  0.00  0.00    +0.000 A 
ATOM     21  C   UNL     1      48.334   7.128  11.940  0.00  0.00    +0.000 A 
ATOM     22  C   UNL     1      47.038   6.953  11.474  0.00  0.00    +0.000 A 
ATOM     23  C   UNL     1      45.961   7.409  12.243  0.00  0.00    +0.000 A 
ATOM     24  C   UNL     1      46.198   8.314  13.285  0.00  0.00    +0.000 A 
ATOM     25  C   UNL     1      47.499   8.534  13.724  0.00  0.00    +0.000 A 
BRANCH  23  26
ATOM     26  C   UNL     1      44.583   6.850  11.996  0.00  0.00    +0.000 C 
BRANCH  26  27
ATOM     27  N   UNL     1      44.132   5.797  12.935  0.00  0.00    +0.000 NA
ATOM     28  C   UNL     1      45.045   4.675  13.263  0.00  0.00    +0.000 C 
ATOM     29  C   UNL     1      45.076   3.431  12.328  0.00  0.00    +0.000 C 
ATOM     30  O   UNL     1      43.823   3.102  11.711  0.00  0.00    +0.000 OA
ATOM     31  C   UNL     1      43.166   4.273  11.230  0.00  0.00    +0.000 C 
ATOM     32  C   UNL     1      42.881   5.198  12.421  0.00  0.00    +0.000 C 
ENDBRANCH  26  27
ENDBRANCH  23  26
ENDBRANCH  19  20
ENDBRANCH   1  19
TORSDOF 8
ENDMDL
