MODEL 1
REMARK VINA RESULT:    -8.259      0.000      0.000
REMARK INTER + INTRA:         -13.070
REMARK INTER:                 -11.639
REMARK INTRA:                  -1.432
REMARK UNBOUND:                -1.432
REMARK  Name = 
REMARK  7 active torsions:
REMARK  status: ('A' for Active; 'I' for Inactive)
REMARK    1  A    between atoms: C_2  and  C_20
REMARK    2  A    between atoms: N_3  and  C_4
REMARK    3  A    between atoms: C_4  and  C_5
REMARK    4  A    between atoms: C_8  and  C_9
REMARK    5  A    between atoms: C_9  and  N_10
REMARK    6  A    between atoms: N_10  and  C_11
REMARK    7  A    between atoms: C_11  and  C_12
REMARK                            x       y       z     vdW  Elec       q    Type
REMARK                         _______ _______ _______ _____ _____    ______ ____
ROOT
ATOM      1  C   UNL     1      46.933   6.274  12.208  0.00  0.00    +0.000 A 
ATOM      2  C   UNL     1      46.216   6.480  11.020  0.00  0.00    +0.000 A 
ATOM      3  C   UNL     1      45.174   5.616  10.672  0.00  0.00    +0.000 A 
ATOM      4  C   UNL     1      44.818   4.541  11.494  0.00  0.00    +0.000 A 
ATOM      5  C   UNL     1      45.491   4.375  12.709  0.00  0.00    +0.000 A 
ATOM      6  C   UNL     1      46.553   5.233  13.057  0.00  0.00    +0.000 A 
ENDROOT
BRANCH   1   7
ATOM      7  C   UNL     1      48.012   7.230  12.626  0.00  0.00    +0.000 C 
BRANCH   7  10
ATOM      8  O   UNL     1      48.210   8.437  15.130  0.00  0.00    +0.000 OA
ATOM      9  C   UNL     1      48.719   7.332  14.966  0.00  0.00    +0.000 C 
ATOM     10  N   UNL     1      48.719   6.694  13.753  0.00  0.00    +0.000 N 
ATOM     11  H   UNL     1      49.231   5.834  13.639  0.00  0.00    +0.000 HD
BRANCH   9  12
ATOM     12  C   UNL     1      49.344   6.567  16.042  0.00  0.00    +0.000 A 
ATOM     13  C   UNL     1      50.595   6.797  16.602  0.00  0.00    +0.000 A 
ATOM     14  N   UNL     1      50.750   5.909  17.629  0.00  0.00    +0.000 N 
ATOM     15  C   UNL     1      49.902   4.851  17.420  0.00  0.00    +0.000 A 
ATOM     16  C   UNL     1      49.952   3.530  17.869  0.00  0.00    +0.000 A 
ATOM     17  C   UNL     1      48.861   2.715  17.558  0.00  0.00    +0.000 A 
ATOM     18  C   UNL     1      47.725   3.239  16.941  0.00  0.00    +0.000 A 
ATOM     19  C   UNL     1      47.709   4.563  16.480  0.00  0.00    +0.000 A 
ATOM     20  C   UNL     1      48.870   5.346  16.626  0.00  0.00    +0.000 A 
ATOM     21  H   UNL     1      51.435   5.975  18.370  0.00  0.00    +0.000 HD
ENDBRANCH   9  12
ENDBRANCH   7  10
ENDBRANCH   1   7
BRANCH   4  22
ATOM     22  C   UNL     1      43.690   3.600  11.125  0.00  0.00    +0.000 C 
BRANCH  22  23
ATOM     23  N   UNL     1      43.760   3.226   9.718  0.00  0.00    +0.000 NA
ATOM     24  H   UNL     1      44.157   4.001   9.189  0.00  0.00    +0.000 HD
BRANCH  23  25
ATOM     25  C   UNL     1      44.531   2.013   9.482  0.00  0.00    +0.000 C 
BRANCH  25  26
ATOM     26  C   UNL     1      45.774   2.368   8.646  0.00  0.00    +0.000 C 
ATOM     27  C   UNL     1      45.462   3.458   7.602  0.00  0.00    +0.000 C 
ATOM     28  C   UNL     1      46.689   3.797   6.760  0.00  0.00    +0.000 C 
ATOM     29  C   UNL     1      47.261   2.556   6.088  0.00  0.00    +0.000 C 
ATOM     30  C   UNL     1      47.570   1.462   7.105  0.00  0.00    +0.000 C 
ATOM     31  C   UNL     1      46.350   1.120   7.960  0.00  0.00    +0.000 C 
ENDBRANCH  25  26
ENDBRANCH  23  25
ENDBRANCH  22  23
ENDBRANCH   4  22
TORSDOF 7
ENDMDL
MODEL 2
REMARK VINA RESULT:    -8.082      2.181      2.796
REMARK INTER + INTRA:         -12.820
REMARK INTER:                 -11.879
REMARK INTRA:                  -0.941
REMARK UNBOUND:                -1.432
REMARK  Name = 
REMARK  7 active torsions:
REMARK  status: ('A' for Active; 'I' for Inactive)
REMARK    1  A    between atoms: C_2  and  C_20
REMARK    2  A    between atoms: N_3  and  C_4
REMARK    3  A    between atoms: C_4  and  C_5
REMARK    4  A    between atoms: C_8  and  C_9
REMARK    5  A    between atoms: C_9  and  N_10
REMARK    6  A    between atoms: N_10  and  C_11
REMARK    7  A    between atoms: C_11  and  C_12
REMARK                            x       y       z     vdW  Elec       q    Type
REMARK                         _______ _______ _______ _____ _____    ______ ____
ROOT
ATOM      1  C   UNL     1      46.943   6.090  13.023  0.00  0.00    +0.000 A 
ATOM      2  C   UNL     1      46.706   6.735  11.800  0.00  0.00    +0.000 A 
ATOM      3  C   UNL     1      45.604   6.374  11.020  0.00  0.00    +0.000 A 
ATOM      4  C   UNL     1      44.714   5.378  11.439  0.00  0.00    +0.000 A 
ATOM      5  C   UNL     1      44.915   4.781  12.689  0.00  0.00    +0.000 A 
ATOM      6  C   UNL     1      46.034   5.130  13.471  0.00  0.00    +0.000 A 
ENDROOT
BRANCH   1   7
ATOM      7  C   UNL     1      48.087   6.510  13.900  0.00  0.00    +0.000 C 
BRANCH   7  10
ATOM      8  O   UNL     1      50.032   6.384  15.892  0.00  0.00    +0.000 OA
ATOM      9  C   UNL     1      48.886   6.034  16.163  0.00  0.00    +0.000 C 
ATOM     10  N   UNL     1      47.884   6.008  15.228  0.00  0.00    +0.000 N 
ATOM     11  H   UNL     1      46.985   5.622  15.468  0.00  0.00    +0.000 HD
BRANCH   9  12
ATOM     12  C   UNL     1      48.461   5.642  17.503  0.00  0.00    +0.000 A 
ATOM     13  C   UNL     1      47.778   4.480  17.848  0.00  0.00    +0.000 A 
ATOM     14  N   UNL     1      47.656   4.471  19.210  0.00  0.00    +0.000 N 
ATOM     15  C   UNL     1      47.780   5.758  19.666  0.00  0.00    +0.000 A 
ATOM     16  C   UNL     1      47.320   6.367  20.836  0.00  0.00    +0.000 A 
ATOM     17  C   UNL     1      47.709   7.691  21.053  0.00  0.00    +0.000 A 
ATOM     18  C   UNL     1      48.616   8.324  20.203  0.00  0.00    +0.000 A 
ATOM     19  C   UNL     1      49.044   7.698  19.023  0.00  0.00    +0.000 A 
ATOM     20  C   UNL     1      48.521   6.433  18.698  0.00  0.00    +0.000 A 
ATOM     21  H   UNL     1      47.425   3.666  19.777  0.00  0.00    +0.000 HD
ENDBRANCH   9  12
ENDBRANCH   7  10
ENDBRANCH   1   7
BRANCH   4  22
ATOM     22  C   UNL     1      43.516   4.981  10.601  0.00  0.00    +0.000 C 
BRANCH  22  23
ATOM     23  N   UNL     1      43.935   4.425   9.321  0.00  0.00    +0.000 NA
ATOM     24  H   UNL     1      44.700   4.988   8.950  0.00  0.00    +0.000 HD
BRANCH  23  25
ATOM     25  C   UNL     1      44.337   3.027   9.402  0.00  0.00    +0.000 C 
BRANCH  25  26
ATOM     26  C   UNL     1      45.169   2.675   8.156  0.00  0.00    +0.000 C 
ATOM     27  C   UNL     1      46.085   1.463   8.410  0.00  0.00    +0.000 C 
ATOM     28  C   UNL     1      46.924   1.125   7.181  0.00  0.00    +0.000 C 
ATOM     29  C   UNL     1      47.737   2.327   6.716  0.00  0.00    +0.000 C 
ATOM     30  C   UNL     1      46.846   3.540   6.465  0.00  0.00    +0.000 C 
ATOM     31  C   UNL     1      45.995   3.882   7.688  0.00  0.00    +0.000 C 
ENDBRANCH  25  26
ENDBRANCH  23  25
ENDBRANCH  22  23
ENDBRANCH   4  22
TORSDOF 7
ENDMDL
MODEL 3
REMARK VINA RESULT:    -7.757      1.901      8.478
REMARK INTER + INTRA:         -12.363
REMARK INTER:                 -11.272
REMARK INTRA:                  -1.091
REMARK UNBOUND:                -1.432
REMARK  Name = 
REMARK  7 active torsions:
REMARK  status: ('A' for Active; 'I' for Inactive)
REMARK    1  A    between atoms: C_2  and  C_20
REMARK    2  A    between atoms: N_3  and  C_4
REMARK    3  A    between atoms: C_4  and  C_5
REMARK    4  A    between atoms: C_8  and  C_9
REMARK    5  A    between atoms: C_9  and  N_10
REMARK    6  A    between atoms: N_10  and  C_11
REMARK    7  A    between atoms: C_11  and  C_12
REMARK                            x       y       z     vdW  Elec       q    Type
REMARK                         _______ _______ _______ _____ _____    ______ ____
ROOT
ATOM      1  C   UNL     1      46.313   7.287  12.467  0.00  0.00    +0.000 A 
ATOM      2  C   UNL     1      46.463   8.536  13.089  0.00  0.00    +0.000 A 
ATOM      3  C   UNL     1      47.499   8.743  14.003  0.00  0.00    +0.000 A 
ATOM      4  C   UNL     1      48.408   7.724  14.312  0.00  0.00    +0.000 A 
ATOM      5  C   UNL     1      48.297   6.500  13.643  0.00  0.00    +0.000 A 
ATOM      6  C   UNL     1      47.243   6.281  12.733  0.00  0.00    +0.000 A 
ENDROOT
BRANCH   1   7
ATOM      7  C   UNL     1      45.243   7.069  11.437  0.00  0.00    +0.000 C 
BRANCH   7  10
ATOM      8  O   UNL     1      43.040   5.541  10.674  0.00  0.00    +0.000 OA
ATOM      9  C   UNL     1      44.163   5.055  10.564  0.00  0.00    +0.000 C 
ATOM     10  N   UNL     1      45.294   5.713  10.971  0.00  0.00    +0.000 N 
ATOM     11  H   UNL     1      46.183   5.241  10.952  0.00  0.00    +0.000 HD
BRANCH   9  12
ATOM     12  C   UNL     1      44.418   3.748   9.964  0.00  0.00    +0.000 A 
ATOM     13  C   UNL     1      44.059   2.512  10.490  0.00  0.00    +0.000 A 
ATOM     14  N   UNL     1      44.410   1.563   9.570  0.00  0.00    +0.000 N 
ATOM     15  C   UNL     1      45.382   2.085   8.756  0.00  0.00    +0.000 A 
ATOM     16  C   UNL     1      46.368   1.464   7.987  0.00  0.00    +0.000 A 
ATOM     17  C   UNL     1      47.151   2.290   7.176  0.00  0.00    +0.000 A 
ATOM     18  C   UNL     1      46.869   3.650   7.051  0.00  0.00    +0.000 A 
ATOM     19  C   UNL     1      45.889   4.253   7.852  0.00  0.00    +0.000 A 
ATOM     20  C   UNL     1      45.214   3.467   8.805  0.00  0.00    +0.000 A 
ATOM     21  H   UNL     1      44.075   0.609   9.548  0.00  0.00    +0.000 HD
ENDBRANCH   9  12
ENDBRANCH   7  10
ENDBRANCH   1   7
BRANCH   4  22
ATOM     22  C   UNL     1      49.536   7.940  15.300  0.00  0.00    +0.000 C 
BRANCH  22  23
ATOM     23  N   UNL     1      49.997   6.671  15.850  0.00  0.00    +0.000 NA
ATOM     24  H   UNL     1      50.992   6.567  15.653  0.00  0.00    +0.000 HD
BRANCH  23  25
ATOM     25  C   UNL     1      49.756   6.541  17.281  0.00  0.00    +0.000 C 
BRANCH  25  26
ATOM     26  C   UNL     1      49.278   5.108  17.577  0.00  0.00    +0.000 C 
ATOM     27  C   UNL     1      50.373   4.070  17.262  0.00  0.00    +0.000 C 
ATOM     28  C   UNL     1      49.894   2.648  17.537  0.00  0.00    +0.000 C 
ATOM     29  C   UNL     1      48.616   2.334  16.769  0.00  0.00    +0.000 C 
ATOM     30  C   UNL     1      47.522   3.356  17.063  0.00  0.00    +0.000 C 
ATOM     31  C   UNL     1      47.994   4.785  16.799  0.00  0.00    +0.000 C 
ENDBRANCH  25  26
ENDBRANCH  23  25
ENDBRANCH  22  23
ENDBRANCH   4  22
TORSDOF 7
ENDMDL
MODEL 4
REMARK VINA RESULT:    -7.026      2.021      8.934
REMARK INTER + INTRA:         -11.333
REMARK INTER:                 -10.875
REMARK INTRA:                  -0.458
REMARK UNBOUND:                -1.432
REMARK  Name = 
REMARK  7 active torsions:
REMARK  status: ('A' for Active; 'I' for Inactive)
REMARK    1  A    between atoms: C_2  and  C_20
REMARK    2  A    between atoms: N_3  and  C_4
REMARK    3  A    between atoms: C_4  and  C_5
REMARK    4  A    between atoms: C_8  and  C_9
REMARK    5  A    between atoms: C_9  and  N_10
REMARK    6  A    between atoms: N_10  and  C_11
REMARK    7  A    between atoms: C_11  and  C_12
REMARK                            x       y       z     vdW  Elec       q    Type
REMARK                         _______ _______ _______ _____ _____    ______ ____
ROOT
ATOM      1  C   UNL     1      44.834   6.574  11.809  0.00  0.00    +0.000 A 
ATOM      2  C   UNL     1      45.399   5.659  12.709  0.00  0.00    +0.000 A 
ATOM      3  C   UNL     1      46.487   6.037  13.501  0.00  0.00    +0.000 A 
ATOM      4  C   UNL     1      47.029   7.325  13.422  0.00  0.00    +0.000 A 
ATOM      5  C   UNL     1      46.423   8.257  12.571  0.00  0.00    +0.000 A 
ATOM      6  C   UNL     1      45.336   7.876  11.759  0.00  0.00    +0.000 A 
ENDROOT
BRANCH   1   7
ATOM      7  C   UNL     1      43.626   6.203  10.998  0.00  0.00    +0.000 C 
BRANCH   7  10
ATOM      8  O   UNL     1      45.608   5.659   9.116  0.00  0.00    +0.000 OA
ATOM      9  C   UNL     1      44.880   4.743   9.488  0.00  0.00    +0.000 C 
ATOM     10  N   UNL     1      43.844   4.935  10.364  0.00  0.00    +0.000 N 
ATOM     11  H   UNL     1      43.212   4.177  10.567  0.00  0.00    +0.000 HD
BRANCH   9  12
ATOM     12  C   UNL     1      45.055   3.355   9.068  0.00  0.00    +0.000 A 
ATOM     13  C   UNL     1      44.593   2.225   9.733  0.00  0.00    +0.000 A 
ATOM     14  N   UNL     1      44.899   1.143   8.955  0.00  0.00    +0.000 N 
ATOM     15  C   UNL     1      45.928   1.488   8.117  0.00  0.00    +0.000 A 
ATOM     16  C   UNL     1      46.887   0.706   7.469  0.00  0.00    +0.000 A 
ATOM     17  C   UNL     1      47.750   1.364   6.590  0.00  0.00    +0.000 A 
ATOM     18  C   UNL     1      47.571   2.714   6.282  0.00  0.00    +0.000 A 
ATOM     19  C   UNL     1      46.616   3.481   6.964  0.00  0.00    +0.000 A 
ATOM     20  C   UNL     1      45.860   2.873   7.983  0.00  0.00    +0.000 A 
ATOM     21  H   UNL     1      44.495   0.220   9.041  0.00  0.00    +0.000 HD
ENDBRANCH   9  12
ENDBRANCH   7  10
ENDBRANCH   1   7
BRANCH   4  22
ATOM     22  C   UNL     1      48.207   7.744  14.277  0.00  0.00    +0.000 C 
BRANCH  22  23
ATOM     23  N   UNL     1      48.940   6.582  14.762  0.00  0.00    +0.000 NA
ATOM     24  H   UNL     1      49.452   6.165  13.985  0.00  0.00    +0.000 HD
BRANCH  23  25
ATOM     25  C   UNL     1      49.855   6.891  15.853  0.00  0.00    +0.000 C 
BRANCH  25  26
ATOM     26  C   UNL     1      49.237   6.400  17.175  0.00  0.00    +0.000 C 
ATOM     27  C   UNL     1      48.267   5.225  16.945  0.00  0.00    +0.000 C 
ATOM     28  C   UNL     1      47.639   4.750  18.251  0.00  0.00    +0.000 C 
ATOM     29  C   UNL     1      46.939   5.891  18.979  0.00  0.00    +0.000 C 
ATOM     30  C   UNL     1      47.882   7.068  19.210  0.00  0.00    +0.000 C 
ATOM     31  C   UNL     1      48.523   7.547  17.907  0.00  0.00    +0.000 C 
ENDBRANCH  25  26
ENDBRANCH  23  25
ENDBRANCH  22  23
ENDBRANCH   4  22
TORSDOF 7
ENDMDL
MODEL 5
REMARK VINA RESULT:    -6.983      2.966      3.504
REMARK INTER + INTRA:         -11.273
REMARK INTER:                 -10.567
REMARK INTRA:                  -0.706
REMARK UNBOUND:                -1.432
REMARK  Name = 
REMARK  7 active torsions:
REMARK  status: ('A' for Active; 'I' for Inactive)
REMARK    1  A    between atoms: C_2  and  C_20
REMARK    2  A    between atoms: N_3  and  C_4
REMARK    3  A    between atoms: C_4  and  C_5
REMARK    4  A    between atoms: C_8  and  C_9
REMARK    5  A    between atoms: C_9  and  N_10
REMARK    6  A    between atoms: N_10  and  C_11
REMARK    7  A    between atoms: C_11  and  C_12
REMARK                            x       y       z     vdW  Elec       q    Type
REMARK                         _______ _______ _______ _____ _____    ______ ____
ROOT
ATOM      1  C   UNL     1      47.042   7.875  13.269  0.00  0.00    +0.000 A 
ATOM      2  C   UNL     1      47.193   6.488  13.124  0.00  0.00    +0.000 A 
ATOM      3  C   UNL     1      46.267   5.758  12.374  0.00  0.00    +0.000 A 
ATOM      4  C   UNL     1      45.183   6.385  11.749  0.00  0.00    +0.000 A 
ATOM      5  C   UNL     1      45.070   7.777  11.841  0.00  0.00    +0.000 A 
ATOM      6  C   UNL     1      45.992   8.516  12.610  0.00  0.00    +0.000 A 
ENDROOT
BRANCH   1   7
ATOM      7  C   UNL     1      48.063   8.681  14.019  0.00  0.00    +0.000 C 
BRANCH   7  10
ATOM      8  O   UNL     1      49.737   9.285  16.163  0.00  0.00    +0.000 OA
ATOM      9  C   UNL     1      48.529   9.193  16.365  0.00  0.00    +0.000 C 
ATOM     10  N   UNL     1      47.643   8.842  15.381  0.00  0.00    +0.000 N 
ATOM     11  H   UNL     1      46.675   8.683  15.611  0.00  0.00    +0.000 HD
BRANCH   9  12
ATOM     12  C   UNL     1      47.906   9.476  17.655  0.00  0.00    +0.000 A 
ATOM     13  C   UNL     1      47.627  10.733  18.180  0.00  0.00    +0.000 A 
ATOM     14  N   UNL     1      46.968  10.541  19.363  0.00  0.00    +0.000 N 
ATOM     15  C   UNL     1      47.258   9.281  19.822  0.00  0.00    +0.000 A 
ATOM     16  C   UNL     1      47.235   8.745  21.111  0.00  0.00    +0.000 A 
ATOM     17  C   UNL     1      47.490   7.377  21.231  0.00  0.00    +0.000 A 
ATOM     18  C   UNL     1      47.633   6.570  20.101  0.00  0.00    +0.000 A 
ATOM     19  C   UNL     1      47.675   7.137  18.820  0.00  0.00    +0.000 A 
ATOM     20  C   UNL     1      47.600   8.537  18.695  0.00  0.00    +0.000 A 
ATOM     21  H   UNL     1      46.430  11.238  19.860  0.00  0.00    +0.000 HD
ENDBRANCH   9  12
ENDBRANCH   7  10
ENDBRANCH   1   7
BRANCH   4  22
ATOM     22  C   UNL     1      44.175   5.603  10.934  0.00  0.00    +0.000 C 
BRANCH  22  23
ATOM     23  N   UNL     1      44.812   4.962   9.790  0.00  0.00    +0.000 NA
ATOM     24  H   UNL     1      45.818   4.925   9.950  0.00  0.00    +0.000 HD
BRANCH  23  25
ATOM     25  C   UNL     1      44.299   3.626   9.517  0.00  0.00    +0.000 C 
BRANCH  25  26
ATOM     26  C   UNL     1      45.074   3.029   8.328  0.00  0.00    +0.000 C 
ATOM     27  C   UNL     1      45.810   1.735   8.725  0.00  0.00    +0.000 C 
ATOM     28  C   UNL     1      46.594   1.152   7.553  0.00  0.00    +0.000 C 
ATOM     29  C   UNL     1      47.569   2.171   6.975  0.00  0.00    +0.000 C 
ATOM     30  C   UNL     1      46.858   3.463   6.583  0.00  0.00    +0.000 C 
ATOM     31  C   UNL     1      46.063   4.051   7.749  0.00  0.00    +0.000 C 
ENDBRANCH  25  26
ENDBRANCH  23  25
ENDBRANCH  22  23
ENDBRANCH   4  22
TORSDOF 7
ENDMDL
MODEL 6
REMARK VINA RESULT:    -6.952      0.921      1.653
REMARK INTER + INTRA:         -11.228
REMARK INTER:                 -10.230
REMARK INTRA:                  -0.998
REMARK UNBOUND:                -1.432
REMARK  Name = 
REMARK  7 active torsions:
REMARK  status: ('A' for Active; 'I' for Inactive)
REMARK    1  A    between atoms: C_2  and  C_20
REMARK    2  A    between atoms: N_3  and  C_4
REMARK    3  A    between atoms: C_4  and  C_5
REMARK    4  A    between atoms: C_8  and  C_9
REMARK    5  A    between atoms: C_9  and  N_10
REMARK    6  A    between atoms: N_10  and  C_11
REMARK    7  A    between atoms: C_11  and  C_12
REMARK                            x       y       z     vdW  Elec       q    Type
REMARK                         _______ _______ _______ _____ _____    ______ ____
ROOT
ATOM      1  C   UNL     1      47.309   7.220  12.780  0.00  0.00    +0.000 A 
ATOM      2  C   UNL     1      47.351   5.898  13.248  0.00  0.00    +0.000 A 
ATOM      3  C   UNL     1      46.412   4.966  12.798  0.00  0.00    +0.000 A 
ATOM      4  C   UNL     1      45.424   5.321  11.873  0.00  0.00    +0.000 A 
ATOM      5  C   UNL     1      45.423   6.622  11.358  0.00  0.00    +0.000 A 
ATOM      6  C   UNL     1      46.357   7.570  11.821  0.00  0.00    +0.000 A 
ENDROOT
BRANCH   1   7
ATOM      7  C   UNL     1      48.348   8.216  13.206  0.00  0.00    +0.000 C 
BRANCH   7  10
ATOM      8  O   UNL     1      48.442   8.513  15.976  0.00  0.00    +0.000 OA
ATOM      9  C   UNL     1      49.233   7.742  15.437  0.00  0.00    +0.000 C 
ATOM     10  N   UNL     1      49.294   7.582  14.078  0.00  0.00    +0.000 N 
ATOM     11  H   UNL     1      50.021   7.014  13.672  0.00  0.00    +0.000 HD
BRANCH   9  12
ATOM     12  C   UNL     1      50.162   6.896  16.180  0.00  0.00    +0.000 A 
ATOM     13  C   UNL     1      51.544   7.039  16.240  0.00  0.00    +0.000 A 
ATOM     14  N   UNL     1      52.013   6.094  17.109  0.00  0.00    +0.000 N 
ATOM     15  C   UNL     1      51.083   5.089  17.200  0.00  0.00    +0.000 A 
ATOM     16  C   UNL     1      51.214   3.745  17.559  0.00  0.00    +0.000 A 
ATOM     17  C   UNL     1      50.037   2.999  17.652  0.00  0.00    +0.000 A 
ATOM     18  C   UNL     1      48.788   3.606  17.519  0.00  0.00    +0.000 A 
ATOM     19  C   UNL     1      48.685   4.951  17.136  0.00  0.00    +0.000 A 
ATOM     20  C   UNL     1      49.863   5.670  16.862  0.00  0.00    +0.000 A 
ATOM     21  H   UNL     1      52.926   6.090  17.544  0.00  0.00    +0.000 HD
ENDBRANCH   9  12
ENDBRANCH   7  10
ENDBRANCH   1   7
BRANCH   4  22
ATOM     22  C   UNL     1      44.403   4.317  11.378  0.00  0.00    +0.000 C 
BRANCH  22  23
ATOM     23  N   UNL     1      44.463   4.182   9.928  0.00  0.00    +0.000 NA
ATOM     24  H   UNL     1      45.350   4.561   9.597  0.00  0.00    +0.000 HD
BRANCH  23  25
ATOM     25  C   UNL     1      44.304   2.808   9.469  0.00  0.00    +0.000 C 
BRANCH  25  26
ATOM     26  C   UNL     1      45.163   2.602   8.209  0.00  0.00    +0.000 C 
ATOM     27  C   UNL     1      46.121   1.405   8.366  0.00  0.00    +0.000 C 
ATOM     28  C   UNL     1      46.986   1.211   7.125  0.00  0.00    +0.000 C 
ATOM     29  C   UNL     1      47.759   2.479   6.783  0.00  0.00    +0.000 C 
ATOM     30  C   UNL     1      46.828   3.677   6.630  0.00  0.00    +0.000 C 
ATOM     31  C   UNL     1      45.950   3.875   7.866  0.00  0.00    +0.000 C 
ENDBRANCH  25  26
ENDBRANCH  23  25
ENDBRANCH  22  23
ENDBRANCH   4  22
TORSDOF 7
ENDMDL
MODEL 7
REMARK VINA RESULT:    -6.919      3.528      4.972
REMARK INTER + INTRA:         -11.182
REMARK INTER:                 -10.149
REMARK INTRA:                  -1.033
REMARK UNBOUND:                -1.432
REMARK  Name = 
REMARK  7 active torsions:
REMARK  status: ('A' for Active; 'I' for Inactive)
REMARK    1  A    between atoms: C_2  and  C_20
REMARK    2  A    between atoms: N_3  and  C_4
REMARK    3  A    between atoms: C_4  and  C_5
REMARK    4  A    between atoms: C_8  and  C_9
REMARK    5  A    between atoms: C_9  and  N_10
REMARK    6  A    between atoms: N_10  and  C_11
REMARK    7  A    between atoms: C_11  and  C_12
REMARK                            x       y       z     vdW  Elec       q    Type
REMARK                         _______ _______ _______ _____ _____    ______ ____
ROOT
ATOM      1  C   UNL     1      45.165   6.903  12.255  0.00  0.00    +0.000 A 
ATOM      2  C   UNL     1      45.532   6.411  10.993  0.00  0.00    +0.000 A 
ATOM      3  C   UNL     1      45.102   5.147  10.582  0.00  0.00    +0.000 A 
ATOM      4  C   UNL     1      44.297   4.351  11.406  0.00  0.00    +0.000 A 
ATOM      5  C   UNL     1      43.879   4.868  12.637  0.00  0.00    +0.000 A 
ATOM      6  C   UNL     1      44.323   6.136  13.063  0.00  0.00    +0.000 A 
ENDROOT
BRANCH   1   7
ATOM      7  C   UNL     1      45.567   8.284  12.685  0.00  0.00    +0.000 C 
BRANCH   7  10
ATOM      8  O   UNL     1      48.002   8.144  14.034  0.00  0.00    +0.000 OA
ATOM      9  C   UNL     1      48.002   8.458  12.847  0.00  0.00    +0.000 C 
ATOM     10  N   UNL     1      46.847   8.608  12.124  0.00  0.00    +0.000 N 
ATOM     11  H   UNL     1      46.887   8.961  11.182  0.00  0.00    +0.000 HD
BRANCH   9  12
ATOM     12  C   UNL     1      49.221   8.673  12.072  0.00  0.00    +0.000 A 
ATOM     13  C   UNL     1      50.316   7.819  11.999  0.00  0.00    +0.000 A 
ATOM     14  N   UNL     1      51.193   8.359  11.100  0.00  0.00    +0.000 N 
ATOM     15  C   UNL     1      50.933   9.702  10.993  0.00  0.00    +0.000 A 
ATOM     16  C   UNL     1      51.746  10.767  10.598  0.00  0.00    +0.000 A 
ATOM     17  C   UNL     1      51.140  12.021  10.498  0.00  0.00    +0.000 A 
ATOM     18  C   UNL     1      49.762  12.169  10.662  0.00  0.00    +0.000 A 
ATOM     19  C   UNL     1      48.973  11.088  11.081  0.00  0.00    +0.000 A 
ATOM     20  C   UNL     1      49.599   9.859  11.361  0.00  0.00    +0.000 A 
ATOM     21  H   UNL     1      51.959   7.872  10.655  0.00  0.00    +0.000 HD
ENDBRANCH   9  12
ENDBRANCH   7  10
ENDBRANCH   1   7
BRANCH   4  22
ATOM     22  C   UNL     1      43.825   2.980  10.969  0.00  0.00    +0.000 C 
BRANCH  22  23
ATOM     23  N   UNL     1      43.939   2.824   9.524  0.00  0.00    +0.000 NA
ATOM     24  H   UNL     1      44.325   3.680   9.128  0.00  0.00    +0.000 HD
BRANCH  23  25
ATOM     25  C   UNL     1      44.752   1.680   9.130  0.00  0.00    +0.000 C 
BRANCH  25  26
ATOM     26  C   UNL     1      45.974   2.186   8.343  0.00  0.00    +0.000 C 
ATOM     27  C   UNL     1      45.581   3.267   7.317  0.00  0.00    +0.000 C 
ATOM     28  C   UNL     1      46.789   3.755   6.523  0.00  0.00    +0.000 C 
ATOM     29  C   UNL     1      47.508   2.599   5.839  0.00  0.00    +0.000 C 
ATOM     30  C   UNL     1      47.900   1.515   6.839  0.00  0.00    +0.000 C 
ATOM     31  C   UNL     1      46.697   1.024   7.645  0.00  0.00    +0.000 C 
ENDBRANCH  25  26
ENDBRANCH  23  25
ENDBRANCH  22  23
ENDBRANCH   4  22
TORSDOF 7
ENDMDL
MODEL 8
REMARK VINA RESULT:    -6.677      2.450      8.542
REMARK INTER + INTRA:         -10.841
REMARK INTER:                  -9.397
REMARK INTRA:                  -1.444
REMARK UNBOUND:                -1.432
REMARK  Name = 
REMARK  7 active torsions:
REMARK  status: ('A' for Active; 'I' for Inactive)
REMARK    1  A    between atoms: C_2  and  C_20
REMARK    2  A    between atoms: N_3  and  C_4
REMARK    3  A    between atoms: C_4  and  C_5
REMARK    4  A    between atoms: C_8  and  C_9
REMARK    5  A    between atoms: C_9  and  N_10
REMARK    6  A    between atoms: N_10  and  C_11
REMARK    7  A    between atoms: C_11  and  C_12
REMARK                            x       y       z     vdW  Elec       q    Type
REMARK                         _______ _______ _______ _____ _____    ______ ____
ROOT
ATOM      1  C   UNL     1      47.121   7.958  12.176  0.00  0.00    +0.000 A 
ATOM      2  C   UNL     1      48.080   6.939  12.276  0.00  0.00    +0.000 A 
ATOM      3  C   UNL     1      49.441   7.258  12.295  0.00  0.00    +0.000 A 
ATOM      4  C   UNL     1      49.875   8.587  12.225  0.00  0.00    +0.000 A 
ATOM      5  C   UNL     1      48.916   9.605  12.191  0.00  0.00    +0.000 A 
ATOM      6  C   UNL     1      47.543   9.288  12.155  0.00  0.00    +0.000 A 
ENDROOT
BRANCH   1   7
ATOM      7  C   UNL     1      45.655   7.635  12.217  0.00  0.00    +0.000 C 
BRANCH   7  10
ATOM      8  O   UNL     1      43.832   5.799  13.252  0.00  0.00    +0.000 OA
ATOM      9  C   UNL     1      44.482   5.488  12.258  0.00  0.00    +0.000 C 
ATOM     10  N   UNL     1      45.441   6.307  11.720  0.00  0.00    +0.000 N 
ATOM     11  H   UNL     1      46.018   5.974  10.964  0.00  0.00    +0.000 HD
BRANCH   9  12
ATOM     12  C   UNL     1      44.286   4.240  11.526  0.00  0.00    +0.000 A 
ATOM     13  C   UNL     1      43.809   3.042  12.046  0.00  0.00    +0.000 A 
ATOM     14  N   UNL     1      43.701   2.162  11.005  0.00  0.00    +0.000 N 
ATOM     15  C   UNL     1      44.528   2.581   9.995  0.00  0.00    +0.000 A 
ATOM     16  C   UNL     1      45.128   1.879   8.947  0.00  0.00    +0.000 A 
ATOM     17  C   UNL     1      45.844   2.630   8.012  0.00  0.00    +0.000 A 
ATOM     18  C   UNL     1      45.844   4.024   8.058  0.00  0.00    +0.000 A 
ATOM     19  C   UNL     1      45.254   4.704   9.132  0.00  0.00    +0.000 A 
ATOM     20  C   UNL     1      44.684   3.953  10.178  0.00  0.00    +0.000 A 
ATOM     21  H   UNL     1      43.170   1.301  11.011  0.00  0.00    +0.000 HD
ENDBRANCH   9  12
ENDBRANCH   7  10
ENDBRANCH   1   7
BRANCH   4  22
ATOM     22  C   UNL     1      51.347   8.943  12.247  0.00  0.00    +0.000 C 
BRANCH  22  23
ATOM     23  N   UNL     1      51.996   8.412  13.439  0.00  0.00    +0.000 NA
ATOM     24  H   UNL     1      52.964   8.183  13.215  0.00  0.00    +0.000 HD
BRANCH  23  25
ATOM     25  C   UNL     1      51.947   9.322  14.576  0.00  0.00    +0.000 C 
BRANCH  25  26
ATOM     26  C   UNL     1      51.096   8.684  15.688  0.00  0.00    +0.000 C 
ATOM     27  C   UNL     1      51.039   7.151  15.550  0.00  0.00    +0.000 C 
ATOM     28  C   UNL     1      50.180   6.519  16.641  0.00  0.00    +0.000 C 
ATOM     29  C   UNL     1      48.776   7.111  16.654  0.00  0.00    +0.000 C 
ATOM     30  C   UNL     1      48.812   8.631  16.784  0.00  0.00    +0.000 C 
ATOM     31  C   UNL     1      49.677   9.273  15.700  0.00  0.00    +0.000 C 
ENDBRANCH  25  26
ENDBRANCH  23  25
ENDBRANCH  22  23
ENDBRANCH   4  22
TORSDOF 7
ENDMDL
MODEL 9
REMARK VINA RESULT:    -6.140      3.122      4.449
REMARK INTER + INTRA:         -10.083
REMARK INTER:                  -8.182
REMARK INTRA:                  -1.902
REMARK UNBOUND:                -1.432
REMARK  Name = 
REMARK  7 active torsions:
REMARK  status: ('A' for Active; 'I' for Inactive)
REMARK    1  A    between atoms: C_2  and  C_20
REMARK    2  A    between atoms: N_3  and  C_4
REMARK    3  A    between atoms: C_4  and  C_5
REMARK    4  A    between atoms: C_8  and  C_9
REMARK    5  A    between atoms: C_9  and  N_10
REMARK    6  A    between atoms: N_10  and  C_11
REMARK    7  A    between atoms: C_11  and  C_12
REMARK                            x       y       z     vdW  Elec       q    Type
REMARK                         _______ _______ _______ _____ _____    ______ ____
ROOT
ATOM      1  C   UNL     1      49.677   8.761  13.735  0.00  0.00    +0.000 A 
ATOM      2  C   UNL     1      48.542   8.474  14.508  0.00  0.00    +0.000 A 
ATOM      3  C   UNL     1      47.267   8.755  14.010  0.00  0.00    +0.000 A 
ATOM      4  C   UNL     1      47.092   9.317  12.740  0.00  0.00    +0.000 A 
ATOM      5  C   UNL     1      48.221   9.543  11.945  0.00  0.00    +0.000 A 
ATOM      6  C   UNL     1      49.510   9.276  12.449  0.00  0.00    +0.000 A 
ENDROOT
BRANCH   1   7
ATOM      7  C   UNL     1      51.049   8.407  14.231  0.00  0.00    +0.000 C 
BRANCH   7  10
ATOM      8  O   UNL     1      51.632   8.125  16.941  0.00  0.00    +0.000 OA
ATOM      9  C   UNL     1      51.244   7.142  16.316  0.00  0.00    +0.000 C 
ATOM     10  N   UNL     1      50.992   7.179  14.969  0.00  0.00    +0.000 N 
ATOM     11  H   UNL     1      50.770   6.328  14.477  0.00  0.00    +0.000 HD
BRANCH   9  12
ATOM     12  C   UNL     1      50.978   5.847  16.936  0.00  0.00    +0.000 A 
ATOM     13  C   UNL     1      51.924   4.964  17.445  0.00  0.00    +0.000 A 
ATOM     14  N   UNL     1      51.243   3.920  18.007  0.00  0.00    +0.000 N 
ATOM     15  C   UNL     1      49.990   3.869  17.452  0.00  0.00    +0.000 A 
ATOM     16  C   UNL     1      49.085   2.814  17.319  0.00  0.00    +0.000 A 
ATOM     17  C   UNL     1      47.830   3.120  16.788  0.00  0.00    +0.000 A 
ATOM     18  C   UNL     1      47.463   4.440  16.526  0.00  0.00    +0.000 A 
ATOM     19  C   UNL     1      48.397   5.479  16.646  0.00  0.00    +0.000 A 
ATOM     20  C   UNL     1      49.720   5.162  17.008  0.00  0.00    +0.000 A 
ATOM     21  H   UNL     1      51.625   3.246  18.657  0.00  0.00    +0.000 HD
ENDBRANCH   9  12
ENDBRANCH   7  10
ENDBRANCH   1   7
BRANCH   4  22
ATOM     22  C   UNL     1      45.714   9.624  12.191  0.00  0.00    +0.000 C 
BRANCH  22  23
ATOM     23  N   UNL     1      44.786   8.535  12.469  0.00  0.00    +0.000 NA
ATOM     24  H   UNL     1      43.835   8.903  12.477  0.00  0.00    +0.000 HD
BRANCH  23  25
ATOM     25  C   UNL     1      44.887   7.435  11.518  0.00  0.00    +0.000 C 
BRANCH  25  26
ATOM     26  C   UNL     1      44.903   6.106  12.296  0.00  0.00    +0.000 C 
ATOM     27  C   UNL     1      46.336   5.562  12.458  0.00  0.00    +0.000 C 
ATOM     28  C   UNL     1      46.351   4.235  13.211  0.00  0.00    +0.000 C 
ATOM     29  C   UNL     1      45.455   3.203  12.536  0.00  0.00    +0.000 C 
ATOM     30  C   UNL     1      44.034   3.727  12.361  0.00  0.00    +0.000 C 
ATOM     31  C   UNL     1      44.008   5.061  11.614  0.00  0.00    +0.000 C 
ENDBRANCH  25  26
ENDBRANCH  23  25
ENDBRANCH  22  23
ENDBRANCH   4  22
TORSDOF 7
ENDMDL
