MODEL 1
REMARK VINA RESULT:    -8.962      0.000      0.000
REMARK INTER + INTRA:         -14.217
REMARK INTER:                 -13.416
REMARK INTRA:                  -0.801
REMARK UNBOUND:                -0.801
REMARK  Name = 
REMARK  10 active torsions:
REMARK  status: ('A' for Active; 'I' for Inactive)
REMARK    1  A    between atoms: C_1  and  C_2
REMARK    2  A    between atoms: C_2  and  C_3
REMARK    3  A    between atoms: C_2  and  C_26
REMARK    4  A    between atoms: C_3  and  N_4
REMARK    5  A    between atoms: N_4  and  C_5
REMARK    6  A    between atoms: C_5  and  C_6
REMARK    7  A    between atoms: C_9  and  C_10
REMARK    8  A    between atoms: C_10  and  N_11
REMARK    9  A    between atoms: C_12  and  C_14
REMARK   10  A    between atoms: C_29  and  O_30
REMARK                            x       y       z     vdW  Elec       q    Type
REMARK                         _______ _______ _______ _____ _____    ______ ____
ROOT
ATOM      1  C   UNL     1      44.567   5.864  12.274  0.00  0.00    +0.000 A 
ATOM      2  C   UNL     1      45.290   4.931  13.043  0.00  0.00    +0.000 A 
ATOM      3  C   UNL     1      46.514   5.264  13.619  0.00  0.00    +0.000 A 
ATOM      4  C   UNL     1      47.066   6.532  13.426  0.00  0.00    +0.000 A 
ATOM      5  C   UNL     1      46.394   7.441  12.599  0.00  0.00    +0.000 A 
ATOM      6  C   UNL     1      45.157   7.113  12.032  0.00  0.00    +0.000 A 
ENDROOT
BRANCH   1   7
ATOM      7  C   UNL     1      43.207   5.537  11.677  0.00  0.00    +0.000 C 
BRANCH   7   8
ATOM      8  N   UNL     1      43.302   5.302  10.240  0.00  0.00    +0.000 NA
ATOM      9  H   UNL     1      42.591   4.617   9.989  0.00  0.00    +0.000 HD
BRANCH   8  10
ATOM     10  C   UNL     1      44.581   4.757   9.796  0.00  0.00    +0.000 C 
BRANCH  10  12
ATOM     11  C   UNL     1      44.201   2.327  10.485  0.00  0.00    +0.000 C 
ATOM     12  C   UNL     1      44.412   3.289   9.305  0.00  0.00    +0.000 C 
BRANCH  12  13
ATOM     13  C   UNL     1      45.556   2.864   8.382  0.00  0.00    +0.000 A 
ATOM     14  C   UNL     1      45.959   1.520   8.346  0.00  0.00    +0.000 A 
ATOM     15  C   UNL     1      46.960   1.094   7.465  0.00  0.00    +0.000 A 
ATOM     16  C   UNL     1      47.557   2.013   6.607  0.00  0.00    +0.000 A 
ATOM     17  C   UNL     1      47.178   3.346   6.626  0.00  0.00    +0.000 A 
ATOM     18  C   UNL     1      46.185   3.770   7.509  0.00  0.00    +0.000 A 
BRANCH  16  19
ATOM     19  O   UNL     1      48.524   1.642   5.722  0.00  0.00    +0.000 OA
ATOM     20  H   UNL     1      48.744   0.709   5.876  0.00  0.00    +0.000 HD
ENDBRANCH  16  19
ENDBRANCH  12  13
ENDBRANCH  10  12
ENDBRANCH   8  10
ENDBRANCH   7   8
ENDBRANCH   1   7
BRANCH   4  21
ATOM     21  C   UNL     1      48.380   6.885  14.061  0.00  0.00    +0.000 C 
BRANCH  21  22
ATOM     22  N   UNL     1      48.236   7.039  15.485  0.00  0.00    +0.000 N 
ATOM     23  C   UNL     1      49.217   6.621  16.345  0.00  0.00    +0.000 C 
ATOM     24  O   UNL     1      50.272   6.137  15.943  0.00  0.00    +0.000 OA
ATOM     25  H   UNL     1      47.306   7.242  15.835  0.00  0.00    +0.000 HD
BRANCH  23  26
ATOM     26  C   UNL     1      48.970   6.838  17.774  0.00  0.00    +0.000 A 
ATOM     27  C   UNL     1      48.851   8.133  18.259  0.00  0.00    +0.000 A 
ATOM     28  S   UNL     1      48.521   8.212  19.929  0.00  0.00    +0.000 S 
ATOM     29  C   UNL     1      48.572   6.518  20.074  0.00  0.00    +0.000 A 
ATOM     30  N   UNL     1      48.386   5.915  21.280  0.00  0.00    +0.000 NA
ATOM     31  C   UNL     1      48.475   4.627  21.250  0.00  0.00    +0.000 A 
ATOM     32  N   UNL     1      48.725   3.886  20.125  0.00  0.00    +0.000 N 
ATOM     33  C   UNL     1      48.897   4.449  18.882  0.00  0.00    +0.000 A 
ATOM     34  O   UNL     1      49.086   3.753  17.890  0.00  0.00    +0.000 OA
ATOM     35  C   UNL     1      48.817   5.898  18.861  0.00  0.00    +0.000 A 
ATOM     36  H   UNL     1      48.777   2.879  20.169  0.00  0.00    +0.000 HD
ENDBRANCH  23  26
ENDBRANCH  21  22
ENDBRANCH   4  21
TORSDOF 9
ENDMDL
MODEL 2
REMARK VINA RESULT:    -8.700      1.714      1.967
REMARK INTER + INTRA:         -13.824
REMARK INTER:                 -12.436
REMARK INTRA:                  -1.388
REMARK UNBOUND:                -0.801
REMARK  Name = 
REMARK  10 active torsions:
REMARK  status: ('A' for Active; 'I' for Inactive)
REMARK    1  A    between atoms: C_1  and  C_2
REMARK    2  A    between atoms: C_2  and  C_3
REMARK    3  A    between atoms: C_2  and  C_26
REMARK    4  A    between atoms: C_3  and  N_4
REMARK    5  A    between atoms: N_4  and  C_5
REMARK    6  A    between atoms: C_5  and  C_6
REMARK    7  A    between atoms: C_9  and  C_10
REMARK    8  A    between atoms: C_10  and  N_11
REMARK    9  A    between atoms: C_12  and  C_14
REMARK   10  A    between atoms: C_29  and  O_30
REMARK                            x       y       z     vdW  Elec       q    Type
REMARK                         _______ _______ _______ _____ _____    ______ ____
ROOT
ATOM      1  C   UNL     1      44.828   7.081  11.528  0.00  0.00    +0.000 A 
ATOM      2  C   UNL     1      45.955   6.270  11.764  0.00  0.00    +0.000 A 
ATOM      3  C   UNL     1      46.995   6.700  12.586  0.00  0.00    +0.000 A 
ATOM      4  C   UNL     1      46.951   7.963  13.180  0.00  0.00    +0.000 A 
ATOM      5  C   UNL     1      45.873   8.809  12.889  0.00  0.00    +0.000 A 
ATOM      6  C   UNL     1      44.821   8.372  12.076  0.00  0.00    +0.000 A 
ENDROOT
BRANCH   1   7
ATOM      7  C   UNL     1      43.660   6.612  10.674  0.00  0.00    +0.000 C 
BRANCH   7   8
ATOM      8  N   UNL     1      43.613   5.155  10.596  0.00  0.00    +0.000 NA
ATOM      9  H   UNL     1      44.269   4.786  11.282  0.00  0.00    +0.000 HD
BRANCH   8  10
ATOM     10  C   UNL     1      44.006   4.602   9.303  0.00  0.00    +0.000 C 
BRANCH  10  12
ATOM     11  C   UNL     1      44.783   2.778  10.915  0.00  0.00    +0.000 C 
ATOM     12  C   UNL     1      44.449   3.116   9.453  0.00  0.00    +0.000 C 
BRANCH  12  13
ATOM     13  C   UNL     1      45.576   2.760   8.482  0.00  0.00    +0.000 A 
ATOM     14  C   UNL     1      46.010   1.428   8.378  0.00  0.00    +0.000 A 
ATOM     15  C   UNL     1      46.996   1.065   7.452  0.00  0.00    +0.000 A 
ATOM     16  C   UNL     1      47.547   2.035   6.620  0.00  0.00    +0.000 A 
ATOM     17  C   UNL     1      47.136   3.356   6.706  0.00  0.00    +0.000 A 
ATOM     18  C   UNL     1      46.159   3.717   7.632  0.00  0.00    +0.000 A 
BRANCH  16  19
ATOM     19  O   UNL     1      48.497   1.726   5.694  0.00  0.00    +0.000 OA
ATOM     20  H   UNL     1      48.600   2.481   5.092  0.00  0.00    +0.000 HD
ENDBRANCH  16  19
ENDBRANCH  12  13
ENDBRANCH  10  12
ENDBRANCH   8  10
ENDBRANCH   7   8
ENDBRANCH   1   7
BRANCH   4  21
ATOM     21  C   UNL     1      48.072   8.412  14.074  0.00  0.00    +0.000 C 
BRANCH  21  22
ATOM     22  N   UNL     1      48.244   7.502  15.175  0.00  0.00    +0.000 N 
ATOM     23  C   UNL     1      49.473   6.973  15.470  0.00  0.00    +0.000 C 
ATOM     24  O   UNL     1      50.481   7.279  14.840  0.00  0.00    +0.000 OA
ATOM     25  H   UNL     1      47.405   7.087  15.567  0.00  0.00    +0.000 HD
BRANCH  23  26
ATOM     26  C   UNL     1      49.535   6.065  16.621  0.00  0.00    +0.000 A 
ATOM     27  C   UNL     1      50.504   6.263  17.595  0.00  0.00    +0.000 A 
ATOM     28  S   UNL     1      50.414   5.152  18.885  0.00  0.00    +0.000 S 
ATOM     29  C   UNL     1      49.106   4.337  18.164  0.00  0.00    +0.000 A 
ATOM     30  N   UNL     1      48.551   3.246  18.758  0.00  0.00    +0.000 NA
ATOM     31  C   UNL     1      47.584   2.711  18.090  0.00  0.00    +0.000 A 
ATOM     32  N   UNL     1      47.116   3.171  16.887  0.00  0.00    +0.000 N 
ATOM     33  C   UNL     1      47.631   4.282  16.259  0.00  0.00    +0.000 A 
ATOM     34  O   UNL     1      47.165   4.684  15.199  0.00  0.00    +0.000 OA
ATOM     35  C   UNL     1      48.729   4.916  16.964  0.00  0.00    +0.000 A 
ATOM     36  H   UNL     1      46.352   2.708  16.418  0.00  0.00    +0.000 HD
ENDBRANCH  23  26
ENDBRANCH  21  22
ENDBRANCH   4  21
TORSDOF 9
ENDMDL
MODEL 3
REMARK VINA RESULT:    -8.447      3.039      3.804
REMARK INTER + INTRA:         -13.446
REMARK INTER:                 -12.368
REMARK INTRA:                  -1.077
REMARK UNBOUND:                -0.801
REMARK  Name = 
REMARK  10 active torsions:
REMARK  status: ('A' for Active; 'I' for Inactive)
REMARK    1  A    between atoms: C_1  and  C_2
REMARK    2  A    between atoms: C_2  and  C_3
REMARK    3  A    between atoms: C_2  and  C_26
REMARK    4  A    between atoms: C_3  and  N_4
REMARK    5  A    between atoms: N_4  and  C_5
REMARK    6  A    between atoms: C_5  and  C_6
REMARK    7  A    between atoms: C_9  and  C_10
REMARK    8  A    between atoms: C_10  and  N_11
REMARK    9  A    between atoms: C_12  and  C_14
REMARK   10  A    between atoms: C_29  and  O_30
REMARK                            x       y       z     vdW  Elec       q    Type
REMARK                         _______ _______ _______ _____ _____    ______ ____
ROOT
ATOM      1  C   UNL     1      46.841   5.681  12.959  0.00  0.00    +0.000 A 
ATOM      2  C   UNL     1      46.515   4.492  13.641  0.00  0.00    +0.000 A 
ATOM      3  C   UNL     1      46.936   4.271  14.950  0.00  0.00    +0.000 A 
ATOM      4  C   UNL     1      47.715   5.222  15.613  0.00  0.00    +0.000 A 
ATOM      5  C   UNL     1      48.112   6.372  14.918  0.00  0.00    +0.000 A 
ATOM      6  C   UNL     1      47.676   6.601  13.608  0.00  0.00    +0.000 A 
ENDROOT
BRANCH   1   7
ATOM      7  C   UNL     1      46.351   5.962  11.547  0.00  0.00    +0.000 C 
BRANCH   7   8
ATOM      8  N   UNL     1      45.373   4.967  11.118  0.00  0.00    +0.000 NA
ATOM      9  H   UNL     1      45.768   4.046  11.298  0.00  0.00    +0.000 HD
BRANCH   8  10
ATOM     10  C   UNL     1      45.045   5.010   9.696  0.00  0.00    +0.000 C 
BRANCH  10  12
ATOM     11  C   UNL     1      44.336   2.646  10.356  0.00  0.00    +0.000 C 
ATOM     12  C   UNL     1      44.627   3.600   9.186  0.00  0.00    +0.000 C 
BRANCH  12  13
ATOM     13  C   UNL     1      45.640   3.034   8.189  0.00  0.00    +0.000 A 
ATOM     14  C   UNL     1      46.184   3.868   7.198  0.00  0.00    +0.000 A 
ATOM     15  C   UNL     1      47.160   3.391   6.315  0.00  0.00    +0.000 A 
ATOM     16  C   UNL     1      47.603   2.076   6.426  0.00  0.00    +0.000 A 
ATOM     17  C   UNL     1      47.080   1.234   7.394  0.00  0.00    +0.000 A 
ATOM     18  C   UNL     1      46.104   1.708   8.269  0.00  0.00    +0.000 A 
BRANCH  16  19
ATOM     19  O   UNL     1      48.562   1.573   5.599  0.00  0.00    +0.000 OA
ATOM     20  H   UNL     1      48.640   0.619   5.760  0.00  0.00    +0.000 HD
ENDBRANCH  16  19
ENDBRANCH  12  13
ENDBRANCH  10  12
ENDBRANCH   8  10
ENDBRANCH   7   8
ENDBRANCH   1   7
BRANCH   4  21
ATOM     21  C   UNL     1      48.154   4.980  17.029  0.00  0.00    +0.000 C 
BRANCH  21  22
ATOM     22  N   UNL     1      49.527   4.553  17.073  0.00  0.00    +0.000 N 
ATOM     23  C   UNL     1      50.217   4.512  18.256  0.00  0.00    +0.000 C 
ATOM     24  O   UNL     1      49.689   4.797  19.327  0.00  0.00    +0.000 OA
ATOM     25  H   UNL     1      50.028   4.514  16.192  0.00  0.00    +0.000 HD
BRANCH  23  26
ATOM     26  C   UNL     1      51.608   4.050  18.187  0.00  0.00    +0.000 A 
ATOM     27  C   UNL     1      52.635   4.923  18.522  0.00  0.00    +0.000 A 
ATOM     28  S   UNL     1      54.185   4.220  18.433  0.00  0.00    +0.000 S 
ATOM     29  C   UNL     1      53.543   2.738  17.899  0.00  0.00    +0.000 A 
ATOM     30  N   UNL     1      54.359   1.688  17.610  0.00  0.00    +0.000 NA
ATOM     31  C   UNL     1      53.742   0.634  17.191  0.00  0.00    +0.000 A 
ATOM     32  N   UNL     1      52.383   0.531  17.043  0.00  0.00    +0.000 N 
ATOM     33  C   UNL     1      51.518   1.557  17.343  0.00  0.00    +0.000 A 
ATOM     34  O   UNL     1      50.305   1.418  17.228  0.00  0.00    +0.000 OA
ATOM     35  C   UNL     1      52.162   2.771  17.808  0.00  0.00    +0.000 A 
ATOM     36  H   UNL     1      51.962  -0.326  16.715  0.00  0.00    +0.000 HD
ENDBRANCH  23  26
ENDBRANCH  21  22
ENDBRANCH   4  21
TORSDOF 9
ENDMDL
MODEL 4
REMARK VINA RESULT:    -8.392      1.365      2.104
REMARK INTER + INTRA:         -13.363
REMARK INTER:                 -12.173
REMARK INTRA:                  -1.190
REMARK UNBOUND:                -0.801
REMARK  Name = 
REMARK  10 active torsions:
REMARK  status: ('A' for Active; 'I' for Inactive)
REMARK    1  A    between atoms: C_1  and  C_2
REMARK    2  A    between atoms: C_2  and  C_3
REMARK    3  A    between atoms: C_2  and  C_26
REMARK    4  A    between atoms: C_3  and  N_4
REMARK    5  A    between atoms: N_4  and  C_5
REMARK    6  A    between atoms: C_5  and  C_6
REMARK    7  A    between atoms: C_9  and  C_10
REMARK    8  A    between atoms: C_10  and  N_11
REMARK    9  A    between atoms: C_12  and  C_14
REMARK   10  A    between atoms: C_29  and  O_30
REMARK                            x       y       z     vdW  Elec       q    Type
REMARK                         _______ _______ _______ _____ _____    ______ ____
ROOT
ATOM      1  C   UNL     1      44.826   6.793  11.756  0.00  0.00    +0.000 A 
ATOM      2  C   UNL     1      45.686   5.794  12.251  0.00  0.00    +0.000 A 
ATOM      3  C   UNL     1      46.799   6.116  13.025  0.00  0.00    +0.000 A 
ATOM      4  C   UNL     1      47.099   7.449  13.311  0.00  0.00    +0.000 A 
ATOM      5  C   UNL     1      46.296   8.455  12.759  0.00  0.00    +0.000 A 
ATOM      6  C   UNL     1      45.170   8.131  11.994  0.00  0.00    +0.000 A 
ENDROOT
BRANCH   1   7
ATOM      7  C   UNL     1      43.580   6.459  10.950  0.00  0.00    +0.000 C 
BRANCH   7   8
ATOM      8  N   UNL     1      43.494   5.028  10.676  0.00  0.00    +0.000 NA
ATOM      9  H   UNL     1      43.986   4.539  11.422  0.00  0.00    +0.000 HD
BRANCH   8  10
ATOM     10  C   UNL     1      44.115   4.610   9.423  0.00  0.00    +0.000 C 
BRANCH  10  12
ATOM     11  C   UNL     1      44.739   2.586  10.852  0.00  0.00    +0.000 C 
ATOM     12  C   UNL     1      44.401   3.079   9.435  0.00  0.00    +0.000 C 
BRANCH  12  13
ATOM     13  C   UNL     1      45.456   2.691   8.398  0.00  0.00    +0.000 A 
ATOM     14  C   UNL     1      45.938   3.657   7.499  0.00  0.00    +0.000 A 
ATOM     15  C   UNL     1      46.949   3.343   6.583  0.00  0.00    +0.000 A 
ATOM     16  C   UNL     1      47.489   2.060   6.568  0.00  0.00    +0.000 A 
ATOM     17  C   UNL     1      47.028   1.090   7.443  0.00  0.00    +0.000 A 
ATOM     18  C   UNL     1      46.017   1.402   8.351  0.00  0.00    +0.000 A 
BRANCH  16  19
ATOM     19  O   UNL     1      48.484   1.713   5.704  0.00  0.00    +0.000 OA
ATOM     20  H   UNL     1      49.298   1.566   6.212  0.00  0.00    +0.000 HD
ENDBRANCH  16  19
ENDBRANCH  12  13
ENDBRANCH  10  12
ENDBRANCH   8  10
ENDBRANCH   7   8
ENDBRANCH   1   7
BRANCH   4  21
ATOM     21  C   UNL     1      48.294   7.786  14.157  0.00  0.00    +0.000 C 
BRANCH  21  22
ATOM     22  N   UNL     1      48.128   7.289  15.497  0.00  0.00    +0.000 N 
ATOM     23  C   UNL     1      49.149   6.643  16.143  0.00  0.00    +0.000 C 
ATOM     24  O   UNL     1      50.253   6.494  15.628  0.00  0.00    +0.000 OA
ATOM     25  H   UNL     1      47.180   7.222  15.851  0.00  0.00    +0.000 HD
BRANCH  23  26
ATOM     26  C   UNL     1      48.874   6.189  17.511  0.00  0.00    +0.000 A 
ATOM     27  C   UNL     1      49.120   4.866  17.854  0.00  0.00    +0.000 A 
ATOM     28  S   UNL     1      48.791   4.510  19.487  0.00  0.00    +0.000 S 
ATOM     29  C   UNL     1      48.264   6.100  19.785  0.00  0.00    +0.000 A 
ATOM     30  N   UNL     1      47.813   6.467  21.015  0.00  0.00    +0.000 NA
ATOM     31  C   UNL     1      47.421   7.695  21.093  0.00  0.00    +0.000 A 
ATOM     32  N   UNL     1      47.445   8.592  20.057  0.00  0.00    +0.000 N 
ATOM     33  C   UNL     1      47.911   8.272  18.802  0.00  0.00    +0.000 A 
ATOM     34  O   UNL     1      47.948   9.109  17.907  0.00  0.00    +0.000 OA
ATOM     35  C   UNL     1      48.356   6.898  18.657  0.00  0.00    +0.000 A 
ATOM     36  H   UNL     1      47.128   9.541  20.186  0.00  0.00    +0.000 HD
ENDBRANCH  23  26
ENDBRANCH  21  22
ENDBRANCH   4  21
TORSDOF 9
ENDMDL
MODEL 5
REMARK VINA RESULT:    -8.326      3.837      9.351
REMARK INTER + INTRA:         -13.265
REMARK INTER:                  -9.761
REMARK INTRA:                  -3.505
REMARK UNBOUND:                -0.801
REMARK  Name = 
REMARK  10 active torsions:
REMARK  status: ('A' for Active; 'I' for Inactive)
REMARK    1  A    between atoms: C_1  and  C_2
REMARK    2  A    between atoms: C_2  and  C_3
REMARK    3  A    between atoms: C_2  and  C_26
REMARK    4  A    between atoms: C_3  and  N_4
REMARK    5  A    between atoms: N_4  and  C_5
REMARK    6  A    between atoms: C_5  and  C_6
REMARK    7  A    between atoms: C_9  and  C_10
REMARK    8  A    between atoms: C_10  and  N_11
REMARK    9  A    between atoms: C_12  and  C_14
REMARK   10  A    between atoms: C_29  and  O_30
REMARK                            x       y       z     vdW  Elec       q    Type
REMARK                         _______ _______ _______ _____ _____    ______ ____
ROOT
ATOM      1  C   UNL     1      48.138   5.536  20.471  0.00  0.00    +0.000 A 
ATOM      2  C   UNL     1      48.973   4.486  20.042  0.00  0.00    +0.000 A 
ATOM      3  C   UNL     1      48.828   3.918  18.778  0.00  0.00    +0.000 A 
ATOM      4  C   UNL     1      47.830   4.367  17.911  0.00  0.00    +0.000 A 
ATOM      5  C   UNL     1      46.944   5.356  18.356  0.00  0.00    +0.000 A 
ATOM      6  C   UNL     1      47.099   5.937  19.620  0.00  0.00    +0.000 A 
ENDROOT
BRANCH   1   7
ATOM      7  C   UNL     1      48.310   6.201  21.828  0.00  0.00    +0.000 C 
BRANCH   7   8
ATOM      8  N   UNL     1      48.314   7.656  21.707  0.00  0.00    +0.000 NA
ATOM      9  H   UNL     1      47.545   7.918  21.092  0.00  0.00    +0.000 HD
BRANCH   8  10
ATOM     10  C   UNL     1      49.528   8.215  21.120  0.00  0.00    +0.000 C 
BRANCH  10  12
ATOM     11  C   UNL     1      47.778   9.766  20.090  0.00  0.00    +0.000 C 
ATOM     12  C   UNL     1      49.180   9.154  19.928  0.00  0.00    +0.000 C 
BRANCH  12  13
ATOM     13  C   UNL     1      49.377   8.457  18.580  0.00  0.00    +0.000 A 
ATOM     14  C   UNL     1      50.411   7.520  18.426  0.00  0.00    +0.000 A 
ATOM     15  C   UNL     1      50.573   6.822  17.223  0.00  0.00    +0.000 A 
ATOM     16  C   UNL     1      49.692   7.053  16.171  0.00  0.00    +0.000 A 
ATOM     17  C   UNL     1      48.665   7.974  16.299  0.00  0.00    +0.000 A 
ATOM     18  C   UNL     1      48.509   8.673  17.495  0.00  0.00    +0.000 A 
BRANCH  16  19
ATOM     19  O   UNL     1      49.802   6.387  14.987  0.00  0.00    +0.000 OA
ATOM     20  H   UNL     1      48.918   6.094  14.714  0.00  0.00    +0.000 HD
ENDBRANCH  16  19
ENDBRANCH  12  13
ENDBRANCH  10  12
ENDBRANCH   8  10
ENDBRANCH   7   8
ENDBRANCH   1   7
BRANCH   4  21
ATOM     21  C   UNL     1      47.690   3.756  16.545  0.00  0.00    +0.000 C 
BRANCH  21  22
ATOM     22  N   UNL     1      47.052   4.673  15.638  0.00  0.00    +0.000 N 
ATOM     23  C   UNL     1      46.861   4.346  14.321  0.00  0.00    +0.000 C 
ATOM     24  O   UNL     1      47.185   3.252  13.869  0.00  0.00    +0.000 OA
ATOM     25  H   UNL     1      46.968   5.638  15.940  0.00  0.00    +0.000 HD
BRANCH  23  26
ATOM     26  C   UNL     1      46.190   5.351  13.489  0.00  0.00    +0.000 A 
ATOM     27  C   UNL     1      46.817   6.565  13.246  0.00  0.00    +0.000 A 
ATOM     28  S   UNL     1      45.928   7.602  12.226  0.00  0.00    +0.000 S 
ATOM     29  C   UNL     1      44.651   6.484  12.111  0.00  0.00    +0.000 A 
ATOM     30  N   UNL     1      43.537   6.769  11.384  0.00  0.00    +0.000 NA
ATOM     31  C   UNL     1      42.638   5.843  11.403  0.00  0.00    +0.000 A 
ATOM     32  N   UNL     1      42.753   4.654  12.075  0.00  0.00    +0.000 N 
ATOM     33  C   UNL     1      43.869   4.312  12.803  0.00  0.00    +0.000 A 
ATOM     34  O   UNL     1      43.951   3.226  13.365  0.00  0.00    +0.000 OA
ATOM     35  C   UNL     1      44.908   5.325  12.824  0.00  0.00    +0.000 A 
ATOM     36  H   UNL     1      42.013   3.969  12.044  0.00  0.00    +0.000 HD
ENDBRANCH  23  26
ENDBRANCH  21  22
ENDBRANCH   4  21
TORSDOF 9
ENDMDL
MODEL 6
REMARK VINA RESULT:    -8.115      4.006     10.264
REMARK INTER + INTRA:         -12.949
REMARK INTER:                  -9.999
REMARK INTRA:                  -2.951
REMARK UNBOUND:                -0.801
REMARK  Name = 
REMARK  10 active torsions:
REMARK  status: ('A' for Active; 'I' for Inactive)
REMARK    1  A    between atoms: C_1  and  C_2
REMARK    2  A    between atoms: C_2  and  C_3
REMARK    3  A    between atoms: C_2  and  C_26
REMARK    4  A    between atoms: C_3  and  N_4
REMARK    5  A    between atoms: N_4  and  C_5
REMARK    6  A    between atoms: C_5  and  C_6
REMARK    7  A    between atoms: C_9  and  C_10
REMARK    8  A    between atoms: C_10  and  N_11
REMARK    9  A    between atoms: C_12  and  C_14
REMARK   10  A    between atoms: C_29  and  O_30
REMARK                            x       y       z     vdW  Elec       q    Type
REMARK                         _______ _______ _______ _____ _____    ______ ____
ROOT
ATOM      1  C   UNL     1      51.598   4.471  17.634  0.00  0.00    +0.000 A 
ATOM      2  C   UNL     1      50.722   5.453  17.132  0.00  0.00    +0.000 A 
ATOM      3  C   UNL     1      49.393   5.153  16.837  0.00  0.00    +0.000 A 
ATOM      4  C   UNL     1      48.904   3.858  17.014  0.00  0.00    +0.000 A 
ATOM      5  C   UNL     1      49.786   2.855  17.437  0.00  0.00    +0.000 A 
ATOM      6  C   UNL     1      51.116   3.159  17.748  0.00  0.00    +0.000 A 
ENDROOT
BRANCH   1   7
ATOM      7  C   UNL     1      53.037   4.788  18.008  0.00  0.00    +0.000 C 
BRANCH   7   8
ATOM      8  N   UNL     1      53.225   4.771  19.455  0.00  0.00    +0.000 NA
ATOM      9  H   UNL     1      52.568   4.098  19.845  0.00  0.00    +0.000 HD
BRANCH   8  10
ATOM     10  C   UNL     1      52.961   6.044  20.118  0.00  0.00    +0.000 C 
BRANCH  10  12
ATOM     11  C   UNL     1      52.432   4.616  22.170  0.00  0.00    +0.000 C 
ATOM     12  C   UNL     1      52.017   5.842  21.340  0.00  0.00    +0.000 C 
BRANCH  12  13
ATOM     13  C   UNL     1      50.546   5.812  20.922  0.00  0.00    +0.000 A 
ATOM     14  C   UNL     1      49.950   6.967  20.388  0.00  0.00    +0.000 A 
ATOM     15  C   UNL     1      48.624   6.947  19.939  0.00  0.00    +0.000 A 
ATOM     16  C   UNL     1      47.890   5.767  20.014  0.00  0.00    +0.000 A 
ATOM     17  C   UNL     1      48.456   4.616  20.539  0.00  0.00    +0.000 A 
ATOM     18  C   UNL     1      49.775   4.638  20.992  0.00  0.00    +0.000 A 
BRANCH  16  19
ATOM     19  O   UNL     1      46.602   5.696  19.576  0.00  0.00    +0.000 OA
ATOM     20  H   UNL     1      46.010   5.739  20.344  0.00  0.00    +0.000 HD
ENDBRANCH  16  19
ENDBRANCH  12  13
ENDBRANCH  10  12
ENDBRANCH   8  10
ENDBRANCH   7   8
ENDBRANCH   1   7
BRANCH   4  21
ATOM     21  C   UNL     1      47.467   3.548  16.704  0.00  0.00    +0.000 C 
BRANCH  21  22
ATOM     22  N   UNL     1      46.925   4.506  15.777  0.00  0.00    +0.000 N 
ATOM     23  C   UNL     1      46.905   4.253  14.430  0.00  0.00    +0.000 C 
ATOM     24  O   UNL     1      47.307   3.192  13.962  0.00  0.00    +0.000 OA
ATOM     25  H   UNL     1      46.783   5.450  16.119  0.00  0.00    +0.000 HD
BRANCH  23  26
ATOM     26  C   UNL     1      46.320   5.294  13.578  0.00  0.00    +0.000 A 
ATOM     27  C   UNL     1      47.000   6.490  13.397  0.00  0.00    +0.000 A 
ATOM     28  S   UNL     1      46.209   7.574  12.346  0.00  0.00    +0.000 S 
ATOM     29  C   UNL     1      44.907   6.501  12.130  0.00  0.00    +0.000 A 
ATOM     30  N   UNL     1      43.849   6.837  11.343  0.00  0.00    +0.000 NA
ATOM     31  C   UNL     1      42.921   5.940  11.289  0.00  0.00    +0.000 A 
ATOM     32  N   UNL     1      42.956   4.737  11.943  0.00  0.00    +0.000 N 
ATOM     33  C   UNL     1      44.013   4.346  12.732  0.00  0.00    +0.000 A 
ATOM     34  O   UNL     1      44.025   3.247  13.277  0.00  0.00    +0.000 OA
ATOM     35  C   UNL     1      45.081   5.322  12.835  0.00  0.00    +0.000 A 
ATOM     36  H   UNL     1      42.198   4.077  11.855  0.00  0.00    +0.000 HD
ENDBRANCH  23  26
ENDBRANCH  21  22
ENDBRANCH   4  21
TORSDOF 9
ENDMDL
MODEL 7
REMARK VINA RESULT:    -8.074      3.048      9.028
REMARK INTER + INTRA:         -12.888
REMARK INTER:                 -10.921
REMARK INTRA:                  -1.967
REMARK UNBOUND:                -0.801
REMARK  Name = 
REMARK  10 active torsions:
REMARK  status: ('A' for Active; 'I' for Inactive)
REMARK    1  A    between atoms: C_1  and  C_2
REMARK    2  A    between atoms: C_2  and  C_3
REMARK    3  A    between atoms: C_2  and  C_26
REMARK    4  A    between atoms: C_3  and  N_4
REMARK    5  A    between atoms: N_4  and  C_5
REMARK    6  A    between atoms: C_5  and  C_6
REMARK    7  A    between atoms: C_9  and  C_10
REMARK    8  A    between atoms: C_10  and  N_11
REMARK    9  A    between atoms: C_12  and  C_14
REMARK   10  A    between atoms: C_29  and  O_30
REMARK                            x       y       z     vdW  Elec       q    Type
REMARK                         _______ _______ _______ _____ _____    ______ ____
ROOT
ATOM      1  C   UNL     1      49.035   8.308  16.185  0.00  0.00    +0.000 A 
ATOM      2  C   UNL     1      49.297   7.114  15.487  0.00  0.00    +0.000 A 
ATOM      3  C   UNL     1      48.916   6.956  14.156  0.00  0.00    +0.000 A 
ATOM      4  C   UNL     1      48.242   7.979  13.487  0.00  0.00    +0.000 A 
ATOM      5  C   UNL     1      47.906   9.141  14.194  0.00  0.00    +0.000 A 
ATOM      6  C   UNL     1      48.302   9.306  15.527  0.00  0.00    +0.000 A 
ENDROOT
BRANCH   1   7
ATOM      7  C   UNL     1      49.485   8.518  17.623  0.00  0.00    +0.000 C 
BRANCH   7   8
ATOM      8  N   UNL     1      49.114   7.385  18.465  0.00  0.00    +0.000 NA
ATOM      9  H   UNL     1      49.330   6.533  17.951  0.00  0.00    +0.000 HD
BRANCH   8  10
ATOM     10  C   UNL     1      47.696   7.319  18.805  0.00  0.00    +0.000 C 
BRANCH  10  12
ATOM     11  C   UNL     1      47.733   5.682  20.766  0.00  0.00    +0.000 C 
ATOM     12  C   UNL     1      47.315   5.893  19.301  0.00  0.00    +0.000 C 
BRANCH  12  13
ATOM     13  C   UNL     1      47.845   4.806  18.365  0.00  0.00    +0.000 A 
ATOM     14  C   UNL     1      48.923   4.001  18.770  0.00  0.00    +0.000 A 
ATOM     15  C   UNL     1      49.385   2.959  17.959  0.00  0.00    +0.000 A 
ATOM     16  C   UNL     1      48.763   2.711  16.738  0.00  0.00    +0.000 A 
ATOM     17  C   UNL     1      47.700   3.493  16.316  0.00  0.00    +0.000 A 
ATOM     18  C   UNL     1      47.245   4.534  17.122  0.00  0.00    +0.000 A 
BRANCH  16  19
ATOM     19  O   UNL     1      49.169   1.698  15.922  0.00  0.00    +0.000 OA
ATOM     20  H   UNL     1      48.695   1.771  15.078  0.00  0.00    +0.000 HD
ENDBRANCH  16  19
ENDBRANCH  12  13
ENDBRANCH  10  12
ENDBRANCH   8  10
ENDBRANCH   7   8
ENDBRANCH   1   7
BRANCH   4  21
ATOM     21  C   UNL     1      47.846   7.805  12.048  0.00  0.00    +0.000 C 
BRANCH  21  22
ATOM     22  N   UNL     1      47.093   6.591  11.869  0.00  0.00    +0.000 N 
ATOM     23  C   UNL     1      45.723   6.600  11.891  0.00  0.00    +0.000 C 
ATOM     24  O   UNL     1      45.081   7.638  12.024  0.00  0.00    +0.000 OA
ATOM     25  H   UNL     1      47.598   5.716  11.963  0.00  0.00    +0.000 HD
BRANCH  23  26
ATOM     26  C   UNL     1      45.058   5.309  11.686  0.00  0.00    +0.000 A 
ATOM     27  C   UNL     1      44.365   4.723  12.737  0.00  0.00    +0.000 A 
ATOM     28  S   UNL     1      43.612   3.251  12.324  0.00  0.00    +0.000 S 
ATOM     29  C   UNL     1      44.225   3.319  10.738  0.00  0.00    +0.000 A 
ATOM     30  N   UNL     1      43.964   2.325   9.846  0.00  0.00    +0.000 NA
ATOM     31  C   UNL     1      44.512   2.493   8.688  0.00  0.00    +0.000 A 
ATOM     32  N   UNL     1      45.289   3.566   8.338  0.00  0.00    +0.000 N 
ATOM     33  C   UNL     1      45.561   4.604   9.199  0.00  0.00    +0.000 A 
ATOM     34  O   UNL     1      46.233   5.565   8.841  0.00  0.00    +0.000 OA
ATOM     35  C   UNL     1      44.977   4.460  10.519  0.00  0.00    +0.000 A 
ATOM     36  H   UNL     1      45.684   3.639   7.413  0.00  0.00    +0.000 HD
ENDBRANCH  23  26
ENDBRANCH  21  22
ENDBRANCH   4  21
TORSDOF 9
ENDMDL
MODEL 8
REMARK VINA RESULT:    -7.808      2.174      3.460
REMARK INTER + INTRA:         -12.490
REMARK INTER:                 -11.234
REMARK INTRA:                  -1.256
REMARK UNBOUND:                -0.801
REMARK  Name = 
REMARK  10 active torsions:
REMARK  status: ('A' for Active; 'I' for Inactive)
REMARK    1  A    between atoms: C_1  and  C_2
REMARK    2  A    between atoms: C_2  and  C_3
REMARK    3  A    between atoms: C_2  and  C_26
REMARK    4  A    between atoms: C_3  and  N_4
REMARK    5  A    between atoms: N_4  and  C_5
REMARK    6  A    between atoms: C_5  and  C_6
REMARK    7  A    between atoms: C_9  and  C_10
REMARK    8  A    between atoms: C_10  and  N_11
REMARK    9  A    between atoms: C_12  and  C_14
REMARK   10  A    between atoms: C_29  and  O_30
REMARK                            x       y       z     vdW  Elec       q    Type
REMARK                         _______ _______ _______ _____ _____    ______ ____
ROOT
ATOM      1  C   UNL     1      46.802   5.765  12.904  0.00  0.00    +0.000 A 
ATOM      2  C   UNL     1      46.462   4.706  13.769  0.00  0.00    +0.000 A 
ATOM      3  C   UNL     1      47.066   4.571  15.017  0.00  0.00    +0.000 A 
ATOM      4  C   UNL     1      48.045   5.477  15.432  0.00  0.00    +0.000 A 
ATOM      5  C   UNL     1      48.447   6.487  14.548  0.00  0.00    +0.000 A 
ATOM      6  C   UNL     1      47.830   6.632  13.300  0.00  0.00    +0.000 A 
ENDROOT
BRANCH   1   7
ATOM      7  C   UNL     1      46.121   5.958  11.558  0.00  0.00    +0.000 C 
BRANCH   7   8
ATOM      8  N   UNL     1      44.877   5.197  11.480  0.00  0.00    +0.000 NA
ATOM      9  H   UNL     1      45.070   4.253  11.811  0.00  0.00    +0.000 HD
BRANCH   8  10
ATOM     10  C   UNL     1      44.329   5.063  10.134  0.00  0.00    +0.000 C 
BRANCH  10  12
ATOM     11  C   UNL     1      43.953   2.711  11.057  0.00  0.00    +0.000 C 
ATOM     12  C   UNL     1      44.086   3.565   9.785  0.00  0.00    +0.000 C 
BRANCH  12  13
ATOM     13  C   UNL     1      45.138   3.031   8.812  0.00  0.00    +0.000 A 
ATOM     14  C   UNL     1      45.820   3.921   7.966  0.00  0.00    +0.000 A 
ATOM     15  C   UNL     1      46.831   3.467   7.111  0.00  0.00    +0.000 A 
ATOM     16  C   UNL     1      47.172   2.117   7.107  0.00  0.00    +0.000 A 
ATOM     17  C   UNL     1      46.512   1.220   7.931  0.00  0.00    +0.000 A 
ATOM     18  C   UNL     1      45.501   1.673   8.777  0.00  0.00    +0.000 A 
BRANCH  16  19
ATOM     19  O   UNL     1      48.160   1.632   6.304  0.00  0.00    +0.000 OA
ATOM     20  H   UNL     1      48.874   2.287   6.261  0.00  0.00    +0.000 HD
ENDBRANCH  16  19
ENDBRANCH  12  13
ENDBRANCH  10  12
ENDBRANCH   8  10
ENDBRANCH   7   8
ENDBRANCH   1   7
BRANCH   4  21
ATOM     21  C   UNL     1      48.681   5.330  16.785  0.00  0.00    +0.000 C 
BRANCH  21  22
ATOM     22  N   UNL     1      48.519   6.531  17.560  0.00  0.00    +0.000 N 
ATOM     23  C   UNL     1      47.593   6.603  18.567  0.00  0.00    +0.000 C 
ATOM     24  O   UNL     1      46.894   5.643  18.878  0.00  0.00    +0.000 OA
ATOM     25  H   UNL     1      48.933   7.380  17.189  0.00  0.00    +0.000 HD
BRANCH  23  26
ATOM     26  C   UNL     1      47.520   7.872  19.300  0.00  0.00    +0.000 A 
ATOM     27  C   UNL     1      47.341   7.857  20.676  0.00  0.00    +0.000 A 
ATOM     28  S   UNL     1      47.323   9.408  21.381  0.00  0.00    +0.000 S 
ATOM     29  C   UNL     1      47.507  10.159  19.866  0.00  0.00    +0.000 A 
ATOM     30  N   UNL     1      47.545  11.515  19.759  0.00  0.00    +0.000 NA
ATOM     31  C   UNL     1      47.663  11.950  18.549  0.00  0.00    +0.000 A 
ATOM     32  N   UNL     1      47.755  11.154  17.437  0.00  0.00    +0.000 N 
ATOM     33  C   UNL     1      47.744   9.780  17.498  0.00  0.00    +0.000 A 
ATOM     34  O   UNL     1      47.861   9.099  16.485  0.00  0.00    +0.000 OA
ATOM     35  C   UNL     1      47.602   9.238  18.837  0.00  0.00    +0.000 A 
ATOM     36  H   UNL     1      47.851  11.559  16.517  0.00  0.00    +0.000 HD
ENDBRANCH  23  26
ENDBRANCH  21  22
ENDBRANCH   4  21
TORSDOF 9
ENDMDL
MODEL 9
REMARK VINA RESULT:    -7.749      3.797      9.580
REMARK INTER + INTRA:         -12.400
REMARK INTER:                  -9.052
REMARK INTRA:                  -3.348
REMARK UNBOUND:                -0.801
REMARK  Name = 
REMARK  10 active torsions:
REMARK  status: ('A' for Active; 'I' for Inactive)
REMARK    1  A    between atoms: C_1  and  C_2
REMARK    2  A    between atoms: C_2  and  C_3
REMARK    3  A    between atoms: C_2  and  C_26
REMARK    4  A    between atoms: C_3  and  N_4
REMARK    5  A    between atoms: N_4  and  C_5
REMARK    6  A    between atoms: C_5  and  C_6
REMARK    7  A    between atoms: C_9  and  C_10
REMARK    8  A    between atoms: C_10  and  N_11
REMARK    9  A    between atoms: C_12  and  C_14
REMARK   10  A    between atoms: C_29  and  O_30
REMARK                            x       y       z     vdW  Elec       q    Type
REMARK                         _______ _______ _______ _____ _____    ______ ____
ROOT
ATOM      1  C   UNL     1      50.469   5.097  17.314  0.00  0.00    +0.000 A 
ATOM      2  C   UNL     1      49.091   5.002  17.040  0.00  0.00    +0.000 A 
ATOM      3  C   UNL     1      48.471   5.867  16.141  0.00  0.00    +0.000 A 
ATOM      4  C   UNL     1      49.205   6.869  15.502  0.00  0.00    +0.000 A 
ATOM      5  C   UNL     1      50.559   7.023  15.825  0.00  0.00    +0.000 A 
ATOM      6  C   UNL     1      51.185   6.145  16.717  0.00  0.00    +0.000 A 
ENDROOT
BRANCH   1   7
ATOM      7  C   UNL     1      51.174   4.133  18.255  0.00  0.00    +0.000 C 
BRANCH   7   8
ATOM      8  N   UNL     1      50.658   4.249  19.616  0.00  0.00    +0.000 NA
ATOM      9  H   UNL     1      49.645   4.150  19.573  0.00  0.00    +0.000 HD
BRANCH   8  10
ATOM     10  C   UNL     1      50.926   5.531  20.260  0.00  0.00    +0.000 C 
BRANCH  10  12
ATOM     11  C   UNL     1      48.560   5.060  21.102  0.00  0.00    +0.000 C 
ATOM     12  C   UNL     1      49.612   6.147  20.826  0.00  0.00    +0.000 C 
BRANCH  12  13
ATOM     13  C   UNL     1      49.087   7.277  19.940  0.00  0.00    +0.000 A 
ATOM     14  C   UNL     1      49.981   8.230  19.424  0.00  0.00    +0.000 A 
ATOM     15  C   UNL     1      49.535   9.237  18.559  0.00  0.00    +0.000 A 
ATOM     16  C   UNL     1      48.192   9.289  18.199  0.00  0.00    +0.000 A 
ATOM     17  C   UNL     1      47.291   8.361  18.697  0.00  0.00    +0.000 A 
ATOM     18  C   UNL     1      47.735   7.363  19.563  0.00  0.00    +0.000 A 
BRANCH  16  19
ATOM     19  O   UNL     1      47.716  10.241  17.349  0.00  0.00    +0.000 OA
ATOM     20  H   UNL     1      46.839  10.521  17.657  0.00  0.00    +0.000 HD
ENDBRANCH  16  19
ENDBRANCH  12  13
ENDBRANCH  10  12
ENDBRANCH   8  10
ENDBRANCH   7   8
ENDBRANCH   1   7
BRANCH   4  21
ATOM     21  C   UNL     1      48.530   7.788  14.525  0.00  0.00    +0.000 C 
BRANCH  21  22
ATOM     22  N   UNL     1      47.317   7.199  14.022  0.00  0.00    +0.000 N 
ATOM     23  C   UNL     1      47.051   7.167  12.678  0.00  0.00    +0.000 C 
ATOM     24  O   UNL     1      47.845   7.599  11.847  0.00  0.00    +0.000 OA
ATOM     25  H   UNL     1      46.574   7.029  14.691  0.00  0.00    +0.000 HD
BRANCH  23  26
ATOM     26  C   UNL     1      45.791   6.533  12.276  0.00  0.00    +0.000 A 
ATOM     27  C   UNL     1      44.789   7.306  11.705  0.00  0.00    +0.000 A 
ATOM     28  S   UNL     1      43.409   6.413  11.254  0.00  0.00    +0.000 S 
ATOM     29  C   UNL     1      44.083   4.968  11.847  0.00  0.00    +0.000 A 
ATOM     30  N   UNL     1      43.390   3.799  11.787  0.00  0.00    +0.000 NA
ATOM     31  C   UNL     1      44.009   2.786  12.295  0.00  0.00    +0.000 A 
ATOM     32  N   UNL     1      45.261   2.834  12.851  0.00  0.00    +0.000 N 
ATOM     33  C   UNL     1      46.008   3.987  12.915  0.00  0.00    +0.000 A 
ATOM     34  O   UNL     1      47.138   3.986  13.390  0.00  0.00    +0.000 OA
ATOM     35  C   UNL     1      45.352   5.159  12.365  0.00  0.00    +0.000 A 
ATOM     36  H   UNL     1      45.692   2.003  13.228  0.00  0.00    +0.000 HD
ENDBRANCH  23  26
ENDBRANCH  21  22
ENDBRANCH   4  21
TORSDOF 9
ENDMDL
