MODEL 1
REMARK VINA RESULT:    -9.186      0.000      0.000
REMARK INTER + INTRA:         -14.296
REMARK INTER:                 -12.945
REMARK INTRA:                  -1.351
REMARK UNBOUND:                -1.351
REMARK  Name = 
REMARK  10 active torsions:
REMARK  status: ('A' for Active; 'I' for Inactive)
REMARK    1  A    between atoms: C_1  and  C_2
REMARK    2  A    between atoms: C_4  and  O_5
REMARK    3  A    between atoms: O_5  and  C_6
REMARK    4  A    between atoms: C_6  and  C_7
REMARK    5  A    between atoms: C_7  and  C_8
REMARK    6  A    between atoms: C_7  and  C_9
REMARK    7  A    between atoms: C_7  and  C_10
REMARK    8  A    between atoms: C_14  and  O_15
REMARK    9  A    between atoms: O_15  and  C_16
REMARK   10  A    between atoms: C_23  and  C_24
REMARK                            x       y       z     vdW  Elec       q    Type
REMARK                         _______ _______ _______ _____ _____    ______ ____
ROOT
ATOM      1  C   UNL     1      43.641   4.539  10.669  0.00  0.00    +0.000 C 
ENDROOT
BRANCH   1   2
ATOM      2  C   UNL     1      43.974   4.560  12.188  0.00  0.00    +0.000 C 
ATOM      3  C   UNL     1      43.996   3.095  12.686  0.00  0.00    +0.000 C 
ATOM      4  C   UNL     1      42.812   5.271  12.924  0.00  0.00    +0.000 C 
BRANCH   2   5
ATOM      5  C   UNL     1      45.350   5.205  12.452  0.00  0.00    +0.000 A 
ATOM      6  C   UNL     1      45.974   6.045  11.514  0.00  0.00    +0.000 A 
ATOM      7  C   UNL     1      47.219   6.623  11.769  0.00  0.00    +0.000 A 
ATOM      8  C   UNL     1      47.881   6.367  12.965  0.00  0.00    +0.000 A 
ATOM      9  C   UNL     1      47.300   5.522  13.905  0.00  0.00    +0.000 A 
ATOM     10  C   UNL     1      46.041   4.964  13.660  0.00  0.00    +0.000 A 
BRANCH   9  11
ATOM     11  O   UNL     1      47.893   5.196  15.104  0.00  0.00    +0.000 OA
BRANCH  11  12
ATOM     12  C   UNL     1      47.234   4.206  15.926  0.00  0.00    +0.000 C 
ATOM     13  C   UNL     1      47.246   4.452  17.459  0.00  0.00    +0.000 C 
ATOM     14  C   UNL     1      47.467   2.942  17.642  0.00  0.00    +0.000 C 
ATOM     15  C   UNL     1      48.051   2.921  16.216  0.00  0.00    +0.000 C 
ENDBRANCH  11  12
ENDBRANCH   9  11
ENDBRANCH   2   5
ENDBRANCH   1   2
BRANCH   1  16
ATOM     16  O   UNL     1      43.687   3.207  10.143  0.00  0.00    +0.000 OA
BRANCH  16  20
ATOM     17  C   UNL     1      46.742   0.184   7.666  0.00  0.00    +0.000 C 
ATOM     18  C   UNL     1      46.185   1.559   7.907  0.00  0.00    +0.000 A 
ATOM     19  C   UNL     1      45.212   1.716   8.916  0.00  0.00    +0.000 A 
ATOM     20  C   UNL     1      44.642   2.960   9.194  0.00  0.00    +0.000 A 
ATOM     21  C   UNL     1      45.051   4.070   8.459  0.00  0.00    +0.000 A 
ATOM     22  C   UNL     1      46.019   3.940   7.458  0.00  0.00    +0.000 A 
ATOM     23  C   UNL     1      46.586   2.690   7.163  0.00  0.00    +0.000 A 
BRANCH  23  24
ATOM     24  C   UNL     1      47.624   2.583   6.090  0.00  0.00    +0.000 C 
ATOM     25  N   UNL     1      48.935   2.593   6.484  0.00  0.00    +0.000 N 
ATOM     26  O   UNL     1      47.348   2.509   4.900  0.00  0.00    +0.000 OA
ATOM     27  H   UNL     1      49.233   2.842   7.415  0.00  0.00    +0.000 HD
ATOM     28  H   UNL     1      49.624   2.609   5.743  0.00  0.00    +0.000 HD
ENDBRANCH  23  24
ENDBRANCH  16  20
ENDBRANCH   1  16
TORSDOF 7
ENDMDL
MODEL 2
REMARK VINA RESULT:    -8.088      1.660      3.389
REMARK INTER + INTRA:         -12.749
REMARK INTER:                 -11.460
REMARK INTRA:                  -1.289
REMARK UNBOUND:                -1.351
REMARK  Name = 
REMARK  10 active torsions:
REMARK  status: ('A' for Active; 'I' for Inactive)
REMARK    1  A    between atoms: C_1  and  C_2
REMARK    2  A    between atoms: C_4  and  O_5
REMARK    3  A    between atoms: O_5  and  C_6
REMARK    4  A    between atoms: C_6  and  C_7
REMARK    5  A    between atoms: C_7  and  C_8
REMARK    6  A    between atoms: C_7  and  C_9
REMARK    7  A    between atoms: C_7  and  C_10
REMARK    8  A    between atoms: C_14  and  O_15
REMARK    9  A    between atoms: O_15  and  C_16
REMARK   10  A    between atoms: C_23  and  C_24
REMARK                            x       y       z     vdW  Elec       q    Type
REMARK                         _______ _______ _______ _____ _____    ______ ____
ROOT
ATOM      1  C   UNL     1      43.536   4.471  10.575  0.00  0.00    +0.000 C 
ENDROOT
BRANCH   1   2
ATOM      2  C   UNL     1      43.765   4.533  12.112  0.00  0.00    +0.000 C 
ATOM      3  C   UNL     1      43.589   3.102  12.674  0.00  0.00    +0.000 C 
ATOM      4  C   UNL     1      42.642   5.403  12.729  0.00  0.00    +0.000 C 
BRANCH   2   5
ATOM      5  C   UNL     1      45.183   5.038  12.448  0.00  0.00    +0.000 A 
ATOM      6  C   UNL     1      45.976   4.434  13.439  0.00  0.00    +0.000 A 
ATOM      7  C   UNL     1      47.260   4.902  13.729  0.00  0.00    +0.000 A 
ATOM      8  C   UNL     1      47.781   5.995  13.045  0.00  0.00    +0.000 A 
ATOM      9  C   UNL     1      47.012   6.628  12.074  0.00  0.00    +0.000 A 
ATOM     10  C   UNL     1      45.737   6.143  11.765  0.00  0.00    +0.000 A 
BRANCH   9  11
ATOM     11  O   UNL     1      47.439   7.728  11.365  0.00  0.00    +0.000 OA
BRANCH  11  12
ATOM     12  C   UNL     1      48.550   8.479  11.905  0.00  0.00    +0.000 C 
ATOM     13  C   UNL     1      48.669   9.963  11.464  0.00  0.00    +0.000 C 
ATOM     14  C   UNL     1      50.191   9.761  11.392  0.00  0.00    +0.000 C 
ATOM     15  C   UNL     1      49.916   8.256  11.207  0.00  0.00    +0.000 C 
ENDBRANCH  11  12
ENDBRANCH   9  11
ENDBRANCH   2   5
ENDBRANCH   1   2
BRANCH   1  16
ATOM     16  O   UNL     1      43.657   3.131  10.084  0.00  0.00    +0.000 OA
BRANCH  16  20
ATOM     17  C   UNL     1      46.838   0.183   7.674  0.00  0.00    +0.000 C 
ATOM     18  C   UNL     1      46.248   1.546   7.908  0.00  0.00    +0.000 A 
ATOM     19  C   UNL     1      45.245   1.677   8.891  0.00  0.00    +0.000 A 
ATOM     20  C   UNL     1      44.643   2.908   9.160  0.00  0.00    +0.000 A 
ATOM     21  C   UNL     1      45.051   4.031   8.444  0.00  0.00    +0.000 A 
ATOM     22  C   UNL     1      46.049   3.925   7.469  0.00  0.00    +0.000 A 
ATOM     23  C   UNL     1      46.648   2.688   7.182  0.00  0.00    +0.000 A 
BRANCH  23  24
ATOM     24  C   UNL     1      47.717   2.608   6.138  0.00  0.00    +0.000 C 
ATOM     25  N   UNL     1      49.012   2.514   6.574  0.00  0.00    +0.000 N 
ATOM     26  O   UNL     1      47.481   2.644   4.938  0.00  0.00    +0.000 OA
ATOM     27  H   UNL     1      49.288   2.672   7.531  0.00  0.00    +0.000 HD
ATOM     28  H   UNL     1      49.727   2.550   5.859  0.00  0.00    +0.000 HD
ENDBRANCH  23  24
ENDBRANCH  16  20
ENDBRANCH   1  16
TORSDOF 7
ENDMDL
MODEL 3
REMARK VINA RESULT:    -7.707      1.653      2.063
REMARK INTER + INTRA:         -12.212
REMARK INTER:                 -11.280
REMARK INTRA:                  -0.932
REMARK UNBOUND:                -1.351
REMARK  Name = 
REMARK  10 active torsions:
REMARK  status: ('A' for Active; 'I' for Inactive)
REMARK    1  A    between atoms: C_1  and  C_2
REMARK    2  A    between atoms: C_4  and  O_5
REMARK    3  A    between atoms: O_5  and  C_6
REMARK    4  A    between atoms: C_6  and  C_7
REMARK    5  A    between atoms: C_7  and  C_8
REMARK    6  A    between atoms: C_7  and  C_9
REMARK    7  A    between atoms: C_7  and  C_10
REMARK    8  A    between atoms: C_14  and  O_15
REMARK    9  A    between atoms: O_15  and  C_16
REMARK   10  A    between atoms: C_23  and  C_24
REMARK                            x       y       z     vdW  Elec       q    Type
REMARK                         _______ _______ _______ _____ _____    ______ ____
ROOT
ATOM      1  C   UNL     1      44.622   3.801  11.697  0.00  0.00    +0.000 C 
ENDROOT
BRANCH   1   2
ATOM      2  C   UNL     1      43.979   5.141  12.156  0.00  0.00    +0.000 C 
ATOM      3  C   UNL     1      43.077   4.838  13.375  0.00  0.00    +0.000 C 
ATOM      4  C   UNL     1      43.052   5.641  11.020  0.00  0.00    +0.000 C 
BRANCH   2   5
ATOM      5  C   UNL     1      45.054   6.169  12.564  0.00  0.00    +0.000 A 
ATOM      6  C   UNL     1      44.911   7.542  12.305  0.00  0.00    +0.000 A 
ATOM      7  C   UNL     1      45.893   8.460  12.683  0.00  0.00    +0.000 A 
ATOM      8  C   UNL     1      47.051   8.029  13.320  0.00  0.00    +0.000 A 
ATOM      9  C   UNL     1      47.233   6.673  13.572  0.00  0.00    +0.000 A 
ATOM     10  C   UNL     1      46.237   5.756  13.217  0.00  0.00    +0.000 A 
BRANCH   9  11
ATOM     11  O   UNL     1      48.355   6.155  14.178  0.00  0.00    +0.000 OA
BRANCH  11  12
ATOM     12  C   UNL     1      48.989   6.957  15.200  0.00  0.00    +0.000 C 
ATOM     13  C   UNL     1      50.439   7.434  14.913  0.00  0.00    +0.000 C 
ATOM     14  C   UNL     1      50.759   7.165  16.393  0.00  0.00    +0.000 C 
ATOM     15  C   UNL     1      49.580   6.173  16.399  0.00  0.00    +0.000 C 
ENDBRANCH  11  12
ENDBRANCH   9  11
ENDBRANCH   2   5
ENDBRANCH   1   2
BRANCH   1  16
ATOM     16  O   UNL     1      44.013   3.316  10.495  0.00  0.00    +0.000 OA
BRANCH  16  20
ATOM     17  C   UNL     1      46.606   0.201   7.633  0.00  0.00    +0.000 C 
ATOM     18  C   UNL     1      46.172   1.600   7.974  0.00  0.00    +0.000 A 
ATOM     19  C   UNL     1      45.310   1.778   9.077  0.00  0.00    +0.000 A 
ATOM     20  C   UNL     1      44.856   3.045   9.451  0.00  0.00    +0.000 A 
ATOM     21  C   UNL     1      45.272   4.155   8.720  0.00  0.00    +0.000 A 
ATOM     22  C   UNL     1      46.131   4.003   7.627  0.00  0.00    +0.000 A 
ATOM     23  C   UNL     1      46.580   2.731   7.236  0.00  0.00    +0.000 A 
BRANCH  23  24
ATOM     24  C   UNL     1      47.504   2.600   6.066  0.00  0.00    +0.000 C 
ATOM     25  N   UNL     1      48.834   2.421   6.336  0.00  0.00    +0.000 N 
ATOM     26  O   UNL     1      47.123   2.666   4.904  0.00  0.00    +0.000 OA
ATOM     27  H   UNL     1      49.237   2.549   7.251  0.00  0.00    +0.000 HD
ATOM     28  H   UNL     1      49.456   2.423   5.537  0.00  0.00    +0.000 HD
ENDBRANCH  23  24
ENDBRANCH  16  20
ENDBRANCH   1  16
TORSDOF 7
ENDMDL
MODEL 4
REMARK VINA RESULT:    -7.186      3.021      8.431
REMARK INTER + INTRA:         -11.479
REMARK INTER:                 -10.623
REMARK INTRA:                  -0.856
REMARK UNBOUND:                -1.351
REMARK  Name = 
REMARK  10 active torsions:
REMARK  status: ('A' for Active; 'I' for Inactive)
REMARK    1  A    between atoms: C_1  and  C_2
REMARK    2  A    between atoms: C_4  and  O_5
REMARK    3  A    between atoms: O_5  and  C_6
REMARK    4  A    between atoms: C_6  and  C_7
REMARK    5  A    between atoms: C_7  and  C_8
REMARK    6  A    between atoms: C_7  and  C_9
REMARK    7  A    between atoms: C_7  and  C_10
REMARK    8  A    between atoms: C_14  and  O_15
REMARK    9  A    between atoms: O_15  and  C_16
REMARK   10  A    between atoms: C_23  and  C_24
REMARK                            x       y       z     vdW  Elec       q    Type
REMARK                         _______ _______ _______ _____ _____    ______ ____
ROOT
ATOM      1  C   UNL     1      46.003   5.947  13.321  0.00  0.00    +0.000 C 
ENDROOT
BRANCH   1   2
ATOM      2  C   UNL     1      45.767   6.366  11.842  0.00  0.00    +0.000 C 
ATOM      3  C   UNL     1      47.117   6.860  11.270  0.00  0.00    +0.000 C 
ATOM      4  C   UNL     1      44.802   7.577  11.835  0.00  0.00    +0.000 C 
BRANCH   2   5
ATOM      5  C   UNL     1      45.263   5.179  10.996  0.00  0.00    +0.000 A 
ATOM      6  C   UNL     1      44.520   4.125  11.555  0.00  0.00    +0.000 A 
ATOM      7  C   UNL     1      44.069   3.058  10.775  0.00  0.00    +0.000 A 
ATOM      8  C   UNL     1      44.360   3.009   9.416  0.00  0.00    +0.000 A 
ATOM      9  C   UNL     1      45.112   4.026   8.837  0.00  0.00    +0.000 A 
ATOM     10  C   UNL     1      45.541   5.108   9.613  0.00  0.00    +0.000 A 
BRANCH   9  11
ATOM     11  O   UNL     1      45.463   4.048   7.506  0.00  0.00    +0.000 OA
BRANCH  11  12
ATOM     12  C   UNL     1      46.742   3.477   7.145  0.00  0.00    +0.000 C 
ATOM     13  C   UNL     1      46.899   2.990   5.679  0.00  0.00    +0.000 C 
ATOM     14  C   UNL     1      47.690   1.789   6.223  0.00  0.00    +0.000 C 
ATOM     15  C   UNL     1      46.960   2.001   7.564  0.00  0.00    +0.000 C 
ENDBRANCH  11  12
ENDBRANCH   9  11
ENDBRANCH   2   5
ENDBRANCH   1   2
BRANCH   1  16
ATOM     16  O   UNL     1      47.380   5.638  13.562  0.00  0.00    +0.000 OA
BRANCH  16  20
ATOM     17  C   UNL     1      47.277   2.756  17.599  0.00  0.00    +0.000 C 
ATOM     18  C   UNL     1      47.742   4.005  16.903  0.00  0.00    +0.000 A 
ATOM     19  C   UNL     1      47.326   4.219  15.572  0.00  0.00    +0.000 A 
ATOM     20  C   UNL     1      47.723   5.351  14.856  0.00  0.00    +0.000 A 
ATOM     21  C   UNL     1      48.542   6.290  15.477  0.00  0.00    +0.000 A 
ATOM     22  C   UNL     1      48.962   6.102  16.798  0.00  0.00    +0.000 A 
ATOM     23  C   UNL     1      48.579   4.960  17.519  0.00  0.00    +0.000 A 
BRANCH  23  24
ATOM     24  C   UNL     1      49.039   4.790  18.933  0.00  0.00    +0.000 C 
ATOM     25  N   UNL     1      50.206   4.103  19.133  0.00  0.00    +0.000 N 
ATOM     26  O   UNL     1      48.412   5.215  19.894  0.00  0.00    +0.000 OA
ATOM     27  H   UNL     1      50.665   3.567  18.413  0.00  0.00    +0.000 HD
ATOM     28  H   UNL     1      50.457   3.920  20.096  0.00  0.00    +0.000 HD
ENDBRANCH  23  24
ENDBRANCH  16  20
ENDBRANCH   1  16
TORSDOF 7
ENDMDL
MODEL 5
REMARK VINA RESULT:    -6.332      3.833      7.883
REMARK INTER + INTRA:         -10.274
REMARK INTER:                  -9.364
REMARK INTRA:                  -0.910
REMARK UNBOUND:                -1.351
REMARK  Name = 
REMARK  10 active torsions:
REMARK  status: ('A' for Active; 'I' for Inactive)
REMARK    1  A    between atoms: C_1  and  C_2
REMARK    2  A    between atoms: C_4  and  O_5
REMARK    3  A    between atoms: O_5  and  C_6
REMARK    4  A    between atoms: C_6  and  C_7
REMARK    5  A    between atoms: C_7  and  C_8
REMARK    6  A    between atoms: C_7  and  C_9
REMARK    7  A    between atoms: C_7  and  C_10
REMARK    8  A    between atoms: C_14  and  O_15
REMARK    9  A    between atoms: O_15  and  C_16
REMARK   10  A    between atoms: C_23  and  C_24
REMARK                            x       y       z     vdW  Elec       q    Type
REMARK                         _______ _______ _______ _____ _____    ______ ____
ROOT
ATOM      1  C   UNL     1      46.989   6.589  11.516  0.00  0.00    +0.000 C 
ENDROOT
BRANCH   1   2
ATOM      2  C   UNL     1      45.732   5.874  12.090  0.00  0.00    +0.000 C 
ATOM      3  C   UNL     1      44.628   6.941  12.279  0.00  0.00    +0.000 C 
ATOM      4  C   UNL     1      46.089   5.338  13.499  0.00  0.00    +0.000 C 
BRANCH   2   5
ATOM      5  C   UNL     1      45.222   4.780  11.131  0.00  0.00    +0.000 A 
ATOM      6  C   UNL     1      44.483   3.674  11.585  0.00  0.00    +0.000 A 
ATOM      7  C   UNL     1      44.025   2.693  10.703  0.00  0.00    +0.000 A 
ATOM      8  C   UNL     1      44.305   2.784   9.344  0.00  0.00    +0.000 A 
ATOM      9  C   UNL     1      45.053   3.855   8.866  0.00  0.00    +0.000 A 
ATOM     10  C   UNL     1      45.488   4.852   9.746  0.00  0.00    +0.000 A 
BRANCH   9  11
ATOM     11  O   UNL     1      45.393   4.014   7.542  0.00  0.00    +0.000 OA
BRANCH  11  12
ATOM     12  C   UNL     1      46.698   3.545   7.129  0.00  0.00    +0.000 C 
ATOM     13  C   UNL     1      46.871   3.201   5.625  0.00  0.00    +0.000 C 
ATOM     14  C   UNL     1      47.727   1.999   6.058  0.00  0.00    +0.000 C 
ATOM     15  C   UNL     1      46.996   2.051   7.413  0.00  0.00    +0.000 C 
ENDBRANCH  11  12
ENDBRANCH   9  11
ENDBRANCH   2   5
ENDBRANCH   1   2
BRANCH   1  16
ATOM     16  O   UNL     1      47.625   7.402  12.509  0.00  0.00    +0.000 OA
BRANCH  16  20
ATOM     17  C   UNL     1      49.590  11.854  11.541  0.00  0.00    +0.000 C 
ATOM     18  C   UNL     1      49.709  10.355  11.562  0.00  0.00    +0.000 A 
ATOM     19  C   UNL     1      48.604   9.607  12.017  0.00  0.00    +0.000 A 
ATOM     20  C   UNL     1      48.640   8.211  12.073  0.00  0.00    +0.000 A 
ATOM     21  C   UNL     1      49.795   7.549  11.664  0.00  0.00    +0.000 A 
ATOM     22  C   UNL     1      50.901   8.270  11.204  0.00  0.00    +0.000 A 
ATOM     23  C   UNL     1      50.877   9.673  11.158  0.00  0.00    +0.000 A 
BRANCH  23  24
ATOM     24  C   UNL     1      52.074  10.418  10.654  0.00  0.00    +0.000 C 
ATOM     25  N   UNL     1      53.008  10.800  11.580  0.00  0.00    +0.000 N 
ATOM     26  O   UNL     1      52.232  10.708   9.476  0.00  0.00    +0.000 OA
ATOM     27  H   UNL     1      52.850  10.764  12.575  0.00  0.00    +0.000 HD
ATOM     28  H   UNL     1      53.765  11.378  11.238  0.00  0.00    +0.000 HD
ENDBRANCH  23  24
ENDBRANCH  16  20
ENDBRANCH   1  16
TORSDOF 7
ENDMDL
MODEL 6
REMARK VINA RESULT:    -6.321      2.992      5.511
REMARK INTER + INTRA:         -10.259
REMARK INTER:                  -8.773
REMARK INTRA:                  -1.487
REMARK UNBOUND:                -1.351
REMARK  Name = 
REMARK  10 active torsions:
REMARK  status: ('A' for Active; 'I' for Inactive)
REMARK    1  A    between atoms: C_1  and  C_2
REMARK    2  A    between atoms: C_4  and  O_5
REMARK    3  A    between atoms: O_5  and  C_6
REMARK    4  A    between atoms: C_6  and  C_7
REMARK    5  A    between atoms: C_7  and  C_8
REMARK    6  A    between atoms: C_7  and  C_9
REMARK    7  A    between atoms: C_7  and  C_10
REMARK    8  A    between atoms: C_14  and  O_15
REMARK    9  A    between atoms: O_15  and  C_16
REMARK   10  A    between atoms: C_23  and  C_24
REMARK                            x       y       z     vdW  Elec       q    Type
REMARK                         _______ _______ _______ _____ _____    ______ ____
ROOT
ATOM      1  C   UNL     1      48.637   7.932  11.888  0.00  0.00    +0.000 C 
ENDROOT
BRANCH   1   2
ATOM      2  C   UNL     1      49.362   8.892  12.874  0.00  0.00    +0.000 C 
ATOM      3  C   UNL     1      48.793  10.314  12.654  0.00  0.00    +0.000 C 
ATOM      4  C   UNL     1      50.860   8.939  12.482  0.00  0.00    +0.000 C 
BRANCH   2   5
ATOM      5  C   UNL     1      49.127   8.474  14.340  0.00  0.00    +0.000 A 
ATOM      6  C   UNL     1      48.686   9.384  15.315  0.00  0.00    +0.000 A 
ATOM      7  C   UNL     1      48.475   8.989  16.638  0.00  0.00    +0.000 A 
ATOM      8  C   UNL     1      48.711   7.674  17.025  0.00  0.00    +0.000 A 
ATOM      9  C   UNL     1      49.169   6.754  16.088  0.00  0.00    +0.000 A 
ATOM     10  C   UNL     1      49.355   7.144  14.757  0.00  0.00    +0.000 A 
BRANCH   9  11
ATOM     11  O   UNL     1      49.449   5.439  16.387  0.00  0.00    +0.000 OA
BRANCH  11  12
ATOM     12  C   UNL     1      48.530   4.745  17.260  0.00  0.00    +0.000 C 
ATOM     13  C   UNL     1      48.840   3.253  17.555  0.00  0.00    +0.000 C 
ATOM     14  C   UNL     1      47.330   2.980  17.466  0.00  0.00    +0.000 C 
ATOM     15  C   UNL     1      47.219   4.249  16.599  0.00  0.00    +0.000 C 
ENDBRANCH  11  12
ENDBRANCH   9  11
ENDBRANCH   2   5
ENDBRANCH   1   2
BRANCH   1  16
ATOM     16  O   UNL     1      47.222   8.159  11.886  0.00  0.00    +0.000 OA
BRANCH  16  20
ATOM     17  C   UNL     1      45.168   4.443   9.321  0.00  0.00    +0.000 C 
ATOM     18  C   UNL     1      45.363   5.177  10.618  0.00  0.00    +0.000 A 
ATOM     19  C   UNL     1      46.191   6.318  10.619  0.00  0.00    +0.000 A 
ATOM     20  C   UNL     1      46.428   7.049  11.786  0.00  0.00    +0.000 A 
ATOM     21  C   UNL     1      45.824   6.640  12.972  0.00  0.00    +0.000 A 
ATOM     22  C   UNL     1      44.994   5.515  12.994  0.00  0.00    +0.000 A 
ATOM     23  C   UNL     1      44.763   4.767  11.828  0.00  0.00    +0.000 A 
BRANCH  23  24
ATOM     24  C   UNL     1      43.865   3.571  11.882  0.00  0.00    +0.000 C 
ATOM     25  N   UNL     1      44.360   2.442  12.478  0.00  0.00    +0.000 N 
ATOM     26  O   UNL     1      42.738   3.562  11.405  0.00  0.00    +0.000 OA
ATOM     27  H   UNL     1      45.333   2.322  12.715  0.00  0.00    +0.000 HD
ATOM     28  H   UNL     1      43.776   1.618  12.427  0.00  0.00    +0.000 HD
ENDBRANCH  23  24
ENDBRANCH  16  20
ENDBRANCH   1  16
TORSDOF 7
ENDMDL
MODEL 7
REMARK VINA RESULT:    -6.235      3.550      5.635
REMARK INTER + INTRA:         -10.139
REMARK INTER:                  -8.507
REMARK INTRA:                  -1.632
REMARK UNBOUND:                -1.351
REMARK  Name = 
REMARK  10 active torsions:
REMARK  status: ('A' for Active; 'I' for Inactive)
REMARK    1  A    between atoms: C_1  and  C_2
REMARK    2  A    between atoms: C_4  and  O_5
REMARK    3  A    between atoms: O_5  and  C_6
REMARK    4  A    between atoms: C_6  and  C_7
REMARK    5  A    between atoms: C_7  and  C_8
REMARK    6  A    between atoms: C_7  and  C_9
REMARK    7  A    between atoms: C_7  and  C_10
REMARK    8  A    between atoms: C_14  and  O_15
REMARK    9  A    between atoms: O_15  and  C_16
REMARK   10  A    between atoms: C_23  and  C_24
REMARK                            x       y       z     vdW  Elec       q    Type
REMARK                         _______ _______ _______ _____ _____    ______ ____
ROOT
ATOM      1  C   UNL     1      47.189   8.898  13.335  0.00  0.00    +0.000 C 
ENDROOT
BRANCH   1   2
ATOM      2  C   UNL     1      48.635   9.120  13.864  0.00  0.00    +0.000 C 
ATOM      3  C   UNL     1      48.876  10.645  13.956  0.00  0.00    +0.000 C 
ATOM      4  C   UNL     1      49.622   8.570  12.804  0.00  0.00    +0.000 C 
BRANCH   2   5
ATOM      5  C   UNL     1      48.825   8.492  15.259  0.00  0.00    +0.000 A 
ATOM      6  C   UNL     1      48.693   9.242  16.440  0.00  0.00    +0.000 A 
ATOM      7  C   UNL     1      48.866   8.657  17.697  0.00  0.00    +0.000 A 
ATOM      8  C   UNL     1      49.188   7.309  17.807  0.00  0.00    +0.000 A 
ATOM      9  C   UNL     1      49.347   6.544  16.656  0.00  0.00    +0.000 A 
ATOM     10  C   UNL     1      49.147   7.124  15.398  0.00  0.00    +0.000 A 
BRANCH   9  11
ATOM     11  O   UNL     1      49.685   5.210  16.670  0.00  0.00    +0.000 OA
BRANCH  11  12
ATOM     12  C   UNL     1      48.893   4.331  17.502  0.00  0.00    +0.000 C 
ATOM     13  C   UNL     1      48.837   2.837  17.083  0.00  0.00    +0.000 C 
ATOM     14  C   UNL     1      47.351   2.841  17.475  0.00  0.00    +0.000 C 
ATOM     15  C   UNL     1      47.364   4.366  17.250  0.00  0.00    +0.000 C 
ENDBRANCH  11  12
ENDBRANCH   9  11
ENDBRANCH   2   5
ENDBRANCH   1   2
BRANCH   1  16
ATOM     16  O   UNL     1      47.191   8.161  12.107  0.00  0.00    +0.000 OA
BRANCH  16  20
ATOM     17  C   UNL     1      46.780   3.474  13.680  0.00  0.00    +0.000 C 
ATOM     18  C   UNL     1      46.274   4.614  12.840  0.00  0.00    +0.000 A 
ATOM     19  C   UNL     1      46.985   5.832  12.875  0.00  0.00    +0.000 A 
ATOM     20  C   UNL     1      46.574   6.939  12.129  0.00  0.00    +0.000 A 
ATOM     21  C   UNL     1      45.438   6.831  11.330  0.00  0.00    +0.000 A 
ATOM     22  C   UNL     1      44.721   5.632  11.276  0.00  0.00    +0.000 A 
ATOM     23  C   UNL     1      45.120   4.519  12.034  0.00  0.00    +0.000 A 
BRANCH  23  24
ATOM     24  C   UNL     1      44.336   3.247  11.950  0.00  0.00    +0.000 C 
ATOM     25  N   UNL     1      44.474   2.501  10.810  0.00  0.00    +0.000 N 
ATOM     26  O   UNL     1      43.579   2.871  12.835  0.00  0.00    +0.000 OA
ATOM     27  H   UNL     1      44.923   2.842   9.974  0.00  0.00    +0.000 HD
ATOM     28  H   UNL     1      43.871   1.692  10.730  0.00  0.00    +0.000 HD
ENDBRANCH  23  24
ENDBRANCH  16  20
ENDBRANCH   1  16
TORSDOF 7
ENDMDL
