MODEL 1
REMARK VINA RESULT:    -6.956      0.000      0.000
REMARK INTER + INTRA:          -8.596
REMARK INTER:                  -8.176
REMARK INTRA:                  -0.420
REMARK UNBOUND:                -0.420
REMARK  Name = 
REMARK  3 active torsions:
REMARK  status: ('A' for Active; 'I' for Inactive)
REMARK    1  A    between atoms: C_4  and  O_5
REMARK    2  A    between atoms: O_5  and  C_6
REMARK    3  A    between atoms: C_6  and  C_7
REMARK                            x       y       z     vdW  Elec       q    Type
REMARK                         _______ _______ _______ _____ _____    ______ ____
ROOT
ATOM      1  C   UNL     1      45.092   4.927  12.109  0.00  0.00    +0.000 A 
ATOM      2  C   UNL     1      45.569   3.890  12.908  0.00  0.00    +0.000 A 
ATOM      3  C   UNL     1      46.809   4.022  13.500  0.00  0.00    +0.000 A 
ATOM      4  N   UNL     1      47.616   5.097  13.349  0.00  0.00    +0.000 NA
ATOM      5  C   UNL     1      47.166   6.130  12.610  0.00  0.00    +0.000 A 
ATOM      6  N   UNL     1      47.984   7.222  12.391  0.00  0.00    +0.000 N 
ATOM      7  C   UNL     1      49.435   7.081  12.537  0.00  0.00    +0.000 C 
ATOM      8  C   UNL     1      49.996   7.996  13.644  0.00  0.00    +0.000 C 
ATOM      9  N   UNL     1      49.560   9.406  13.524  0.00  0.00    +0.000 NA
ATOM     10  C   UNL     1      48.083   9.427  13.537  0.00  0.00    +0.000 C 
ATOM     11  C   UNL     1      47.440   8.582  12.415  0.00  0.00    +0.000 C 
ATOM     12  C   UNL     1      45.909   6.064  12.005  0.00  0.00    +0.000 A 
ATOM     13  H   UNL     1      49.871   9.752  12.615  0.00  0.00    +0.000 HD
ENDROOT
BRANCH   1  14
ATOM     14  C   UNL     1      43.784   4.824  11.345  0.00  0.00    +0.000 C 
ATOM     15  C   UNL     1      42.494   5.174  12.091  0.00  0.00    +0.000 C 
ATOM     16  C   UNL     1      43.006   6.087  11.030  0.00  0.00    +0.000 C 
BRANCH  14  17
ATOM     17  O   UNL     1      43.589   3.640  10.537  0.00  0.00    +0.000 OA
BRANCH  17  21
ATOM     18  C   UNL     1      46.242   2.615   7.646  0.00  0.00    +0.000 A 
ATOM     19  C   UNL     1      45.808   3.930   7.748  0.00  0.00    +0.000 A 
ATOM     20  N   UNL     1      44.932   4.346   8.695  0.00  0.00    +0.000 NA
ATOM     21  C   UNL     1      44.511   3.378   9.541  0.00  0.00    +0.000 A 
ATOM     22  C   UNL     1      44.950   2.063   9.441  0.00  0.00    +0.000 A 
ATOM     23  N   UNL     1      45.826   1.648   8.492  0.00  0.00    +0.000 NA
ENDBRANCH  17  21
ENDBRANCH  14  17
ENDBRANCH   1  14
TORSDOF 3
ENDMDL
MODEL 2
REMARK VINA RESULT:    -6.594      2.336      3.598
REMARK INTER + INTRA:          -8.171
REMARK INTER:                  -8.691
REMARK INTRA:                   0.520
REMARK UNBOUND:                -0.420
REMARK  Name = 
REMARK  3 active torsions:
REMARK  status: ('A' for Active; 'I' for Inactive)
REMARK    1  A    between atoms: C_4  and  O_5
REMARK    2  A    between atoms: O_5  and  C_6
REMARK    3  A    between atoms: C_6  and  C_7
REMARK                            x       y       z     vdW  Elec       q    Type
REMARK                         _______ _______ _______ _____ _____    ______ ____
ROOT
ATOM      1  C   UNL     1      45.889   5.239  12.807  0.00  0.00    +0.000 A 
ATOM      2  C   UNL     1      46.777   6.149  12.239  0.00  0.00    +0.000 A 
ATOM      3  C   UNL     1      47.909   6.505  12.945  0.00  0.00    +0.000 A 
ATOM      4  N   UNL     1      48.218   6.038  14.176  0.00  0.00    +0.000 NA
ATOM      5  C   UNL     1      47.395   5.130  14.736  0.00  0.00    +0.000 A 
ATOM      6  N   UNL     1      47.651   4.671  16.013  0.00  0.00    +0.000 N 
ATOM      7  C   UNL     1      48.489   5.466  16.915  0.00  0.00    +0.000 C 
ATOM      8  C   UNL     1      49.764   4.709  17.338  0.00  0.00    +0.000 C 
ATOM      9  N   UNL     1      49.500   3.344  17.846  0.00  0.00    +0.000 NA
ATOM     10  C   UNL     1      48.784   2.598  16.792  0.00  0.00    +0.000 C 
ATOM     11  C   UNL     1      47.458   3.258  16.355  0.00  0.00    +0.000 C 
ATOM     12  C   UNL     1      46.247   4.713  14.059  0.00  0.00    +0.000 A 
ATOM     13  H   UNL     1      48.878   3.426  18.651  0.00  0.00    +0.000 HD
ENDROOT
BRANCH   1  14
ATOM     14  C   UNL     1      44.576   4.866  12.142  0.00  0.00    +0.000 C 
ATOM     15  C   UNL     1      43.283   5.141  12.914  0.00  0.00    +0.000 C 
ATOM     16  C   UNL     1      43.620   5.964  11.717  0.00  0.00    +0.000 C 
BRANCH  14  17
ATOM     17  O   UNL     1      44.511   3.570  11.502  0.00  0.00    +0.000 OA
BRANCH  17  21
ATOM     18  C   UNL     1      45.920   3.521   7.700  0.00  0.00    +0.000 A 
ATOM     19  C   UNL     1      45.667   2.324   8.356  0.00  0.00    +0.000 A 
ATOM     20  N   UNL     1      45.185   2.265   9.622  0.00  0.00    +0.000 NA
ATOM     21  C   UNL     1      44.967   3.468  10.202  0.00  0.00    +0.000 A 
ATOM     22  C   UNL     1      45.216   4.665   9.541  0.00  0.00    +0.000 A 
ATOM     23  N   UNL     1      45.699   4.722   8.275  0.00  0.00    +0.000 NA
ENDBRANCH  17  21
ENDBRANCH  14  17
ENDBRANCH   1  14
TORSDOF 3
ENDMDL
MODEL 3
REMARK VINA RESULT:    -6.141      3.237      7.298
REMARK INTER + INTRA:          -7.638
REMARK INTER:                  -7.276
REMARK INTRA:                  -0.363
REMARK UNBOUND:                -0.420
REMARK  Name = 
REMARK  3 active torsions:
REMARK  status: ('A' for Active; 'I' for Inactive)
REMARK    1  A    between atoms: C_4  and  O_5
REMARK    2  A    between atoms: O_5  and  C_6
REMARK    3  A    between atoms: C_6  and  C_7
REMARK                            x       y       z     vdW  Elec       q    Type
REMARK                         _______ _______ _______ _____ _____    ______ ____
ROOT
ATOM      1  C   UNL     1      47.667   7.323  13.830  0.00  0.00    +0.000 A 
ATOM      2  C   UNL     1      46.975   8.520  13.665  0.00  0.00    +0.000 A 
ATOM      3  C   UNL     1      45.823   8.525  12.905  0.00  0.00    +0.000 A 
ATOM      4  N   UNL     1      45.314   7.435  12.284  0.00  0.00    +0.000 NA
ATOM      5  C   UNL     1      45.943   6.256  12.455  0.00  0.00    +0.000 A 
ATOM      6  N   UNL     1      45.483   5.134  11.794  0.00  0.00    +0.000 N 
ATOM      7  C   UNL     1      44.653   5.287  10.595  0.00  0.00    +0.000 C 
ATOM      8  C   UNL     1      43.252   4.672  10.780  0.00  0.00    +0.000 C 
ATOM      9  N   UNL     1      43.278   3.283  11.292  0.00  0.00    +0.000 NA
ATOM     10  C   UNL     1      44.012   3.286  12.574  0.00  0.00    +0.000 C 
ATOM     11  C   UNL     1      45.453   3.830  12.463  0.00  0.00    +0.000 C 
ATOM     12  C   UNL     1      47.101   6.185  13.233  0.00  0.00    +0.000 A 
ATOM     13  H   UNL     1      43.807   2.716  10.628  0.00  0.00    +0.000 HD
ENDROOT
BRANCH   1  14
ATOM     14  C   UNL     1      48.990   7.248  14.570  0.00  0.00    +0.000 C 
ATOM     15  C   UNL     1      50.254   7.670  13.815  0.00  0.00    +0.000 C 
ATOM     16  C   UNL     1      49.725   8.531  14.911  0.00  0.00    +0.000 C 
BRANCH  14  17
ATOM     17  O   UNL     1      49.244   6.050  15.339  0.00  0.00    +0.000 OA
BRANCH  17  21
ATOM     18  C   UNL     1      47.097   5.261  18.688  0.00  0.00    +0.000 A 
ATOM     19  C   UNL     1      47.890   6.399  18.630  0.00  0.00    +0.000 A 
ATOM     20  N   UNL     1      48.624   6.731  17.540  0.00  0.00    +0.000 NA
ATOM     21  C   UNL     1      48.526   5.866  16.505  0.00  0.00    +0.000 A 
ATOM     22  C   UNL     1      47.728   4.729  16.563  0.00  0.00    +0.000 A 
ATOM     23  N   UNL     1      46.995   4.398  17.655  0.00  0.00    +0.000 NA
ENDBRANCH  17  21
ENDBRANCH  14  17
ENDBRANCH   1  14
TORSDOF 3
ENDMDL
MODEL 4
REMARK VINA RESULT:    -5.756      2.745      6.633
REMARK INTER + INTRA:          -7.185
REMARK INTER:                  -7.012
REMARK INTRA:                  -0.174
REMARK UNBOUND:                -0.420
REMARK  Name = 
REMARK  3 active torsions:
REMARK  status: ('A' for Active; 'I' for Inactive)
REMARK    1  A    between atoms: C_4  and  O_5
REMARK    2  A    between atoms: O_5  and  C_6
REMARK    3  A    between atoms: C_6  and  C_7
REMARK                            x       y       z     vdW  Elec       q    Type
REMARK                         _______ _______ _______ _____ _____    ______ ____
ROOT
ATOM      1  C   UNL     1      47.641   6.667  13.114  0.00  0.00    +0.000 A 
ATOM      2  C   UNL     1      47.884   6.055  14.342  0.00  0.00    +0.000 A 
ATOM      3  C   UNL     1      47.109   4.974  14.713  0.00  0.00    +0.000 A 
ATOM      4  N   UNL     1      46.103   4.464  13.966  0.00  0.00    +0.000 NA
ATOM      5  C   UNL     1      45.868   5.014  12.758  0.00  0.00    +0.000 A 
ATOM      6  N   UNL     1      44.816   4.554  11.991  0.00  0.00    +0.000 N 
ATOM      7  C   UNL     1      43.708   3.839  12.633  0.00  0.00    +0.000 C 
ATOM      8  C   UNL     1      43.569   2.396  12.106  0.00  0.00    +0.000 C 
ATOM      9  N   UNL     1      43.538   2.306  10.629  0.00  0.00    +0.000 NA
ATOM     10  C   UNL     1      44.773   2.927  10.110  0.00  0.00    +0.000 C 
ATOM     11  C   UNL     1      44.957   4.399  10.540  0.00  0.00    +0.000 C 
ATOM     12  C   UNL     1      46.635   6.095  12.318  0.00  0.00    +0.000 A 
ATOM     13  H   UNL     1      42.746   2.859  10.300  0.00  0.00    +0.000 HD
ENDROOT
BRANCH   1  14
ATOM     14  C   UNL     1      48.380   7.916  12.672  0.00  0.00    +0.000 C 
ATOM     15  C   UNL     1      49.911   7.886  12.700  0.00  0.00    +0.000 C 
ATOM     16  C   UNL     1      49.194   7.885  11.392  0.00  0.00    +0.000 C 
BRANCH  14  17
ATOM     17  O   UNL     1      47.895   9.180  13.183  0.00  0.00    +0.000 OA
BRANCH  17  21
ATOM     18  C   UNL     1      45.127  11.197  11.011  0.00  0.00    +0.000 A 
ATOM     19  C   UNL     1      46.460  11.581  10.956  0.00  0.00    +0.000 A 
ATOM     20  N   UNL     1      47.440  10.946  11.646  0.00  0.00    +0.000 NA
ATOM     21  C   UNL     1      47.019   9.903  12.396  0.00  0.00    +0.000 A 
ATOM     22  C   UNL     1      45.685   9.516  12.446  0.00  0.00    +0.000 A 
ATOM     23  N   UNL     1      44.706  10.152  11.756  0.00  0.00    +0.000 NA
ENDBRANCH  17  21
ENDBRANCH  14  17
ENDBRANCH   1  14
TORSDOF 3
ENDMDL
MODEL 5
REMARK VINA RESULT:    -5.610      3.107      4.763
REMARK INTER + INTRA:          -7.014
REMARK INTER:                  -6.879
REMARK INTRA:                  -0.134
REMARK UNBOUND:                -0.420
REMARK  Name = 
REMARK  3 active torsions:
REMARK  status: ('A' for Active; 'I' for Inactive)
REMARK    1  A    between atoms: C_4  and  O_5
REMARK    2  A    between atoms: O_5  and  C_6
REMARK    3  A    between atoms: C_6  and  C_7
REMARK                            x       y       z     vdW  Elec       q    Type
REMARK                         _______ _______ _______ _____ _____    ______ ____
ROOT
ATOM      1  C   UNL     1      47.234   6.705  13.639  0.00  0.00    +0.000 A 
ATOM      2  C   UNL     1      48.374   7.417  13.274  0.00  0.00    +0.000 A 
ATOM      3  C   UNL     1      49.510   7.301  14.050  0.00  0.00    +0.000 A 
ATOM      4  N   UNL     1      49.596   6.543  15.167  0.00  0.00    +0.000 NA
ATOM      5  C   UNL     1      48.520   5.814  15.525  0.00  0.00    +0.000 A 
ATOM      6  N   UNL     1      48.554   5.070  16.688  0.00  0.00    +0.000 N 
ATOM      7  C   UNL     1      49.516   5.413  17.740  0.00  0.00    +0.000 C 
ATOM      8  C   UNL     1      50.503   4.262  18.018  0.00  0.00    +0.000 C 
ATOM      9  N   UNL     1      49.842   2.956  18.241  0.00  0.00    +0.000 NA
ATOM     10  C   UNL     1      49.021   2.654  17.051  0.00  0.00    +0.000 C 
ATOM     11  C   UNL     1      47.959   3.732  16.739  0.00  0.00    +0.000 C 
ATOM     12  C   UNL     1      47.349   5.874  14.765  0.00  0.00    +0.000 A 
ATOM     13  H   UNL     1      49.213   3.057  19.039  0.00  0.00    +0.000 HD
ENDROOT
BRANCH   1  14
ATOM     14  C   UNL     1      45.917   6.849  12.899  0.00  0.00    +0.000 C 
ATOM     15  C   UNL     1      45.478   8.259  12.493  0.00  0.00    +0.000 C 
ATOM     16  C   UNL     1      45.925   7.293  11.448  0.00  0.00    +0.000 C 
BRANCH  14  17
ATOM     17  O   UNL     1      44.790   6.103  13.415  0.00  0.00    +0.000 OA
BRANCH  17  21
ATOM     18  C   UNL     1      43.576   2.822  11.365  0.00  0.00    +0.000 A 
ATOM     19  C   UNL     1      44.749   2.776  12.106  0.00  0.00    +0.000 A 
ATOM     20  N   UNL     1      45.209   3.830  12.824  0.00  0.00    +0.000 NA
ATOM     21  C   UNL     1      44.434   4.937  12.765  0.00  0.00    +0.000 A 
ATOM     22  C   UNL     1      43.257   4.980  12.026  0.00  0.00    +0.000 A 
ATOM     23  N   UNL     1      42.799   3.925  11.308  0.00  0.00    +0.000 NA
ENDBRANCH  17  21
ENDBRANCH  14  17
ENDBRANCH   1  14
TORSDOF 3
ENDMDL
MODEL 6
REMARK VINA RESULT:    -5.572      4.597      7.245
REMARK INTER + INTRA:          -6.969
REMARK INTER:                  -6.897
REMARK INTRA:                  -0.072
REMARK UNBOUND:                -0.420
REMARK  Name = 
REMARK  3 active torsions:
REMARK  status: ('A' for Active; 'I' for Inactive)
REMARK    1  A    between atoms: C_4  and  O_5
REMARK    2  A    between atoms: O_5  and  C_6
REMARK    3  A    between atoms: C_6  and  C_7
REMARK                            x       y       z     vdW  Elec       q    Type
REMARK                         _______ _______ _______ _____ _____    ______ ____
ROOT
ATOM      1  C   UNL     1      44.717   9.217  11.624  0.00  0.00    +0.000 A 
ATOM      2  C   UNL     1      45.858   9.311  12.419  0.00  0.00    +0.000 A 
ATOM      3  C   UNL     1      46.377   8.162  12.979  0.00  0.00    +0.000 A 
ATOM      4  N   UNL     1      45.844   6.929  12.823  0.00  0.00    +0.000 NA
ATOM      5  C   UNL     1      44.761   6.801  12.031  0.00  0.00    +0.000 A 
ATOM      6  N   UNL     1      44.158   5.566  11.890  0.00  0.00    +0.000 N 
ATOM      7  C   UNL     1      44.372   4.535  12.909  0.00  0.00    +0.000 C 
ATOM      8  C   UNL     1      45.059   3.283  12.329  0.00  0.00    +0.000 C 
ATOM      9  N   UNL     1      44.406   2.762  11.107  0.00  0.00    +0.000 NA
ATOM     10  C   UNL     1      44.384   3.848  10.106  0.00  0.00    +0.000 C 
ATOM     11  C   UNL     1      43.655   5.122  10.587  0.00  0.00    +0.000 C 
ATOM     12  C   UNL     1      44.204   7.926  11.418  0.00  0.00    +0.000 A 
ATOM     13  H   UNL     1      43.439   2.533  11.343  0.00  0.00    +0.000 HD
ENDROOT
BRANCH   1  14
ATOM     14  C   UNL     1      44.027  10.440  11.049  0.00  0.00    +0.000 C 
ATOM     15  C   UNL     1      44.880  11.431  10.252  0.00  0.00    +0.000 C 
ATOM     16  C   UNL     1      43.884  10.574   9.545  0.00  0.00    +0.000 C 
BRANCH  14  17
ATOM     17  O   UNL     1      43.120  11.151  11.923  0.00  0.00    +0.000 OA
BRANCH  17  21
ATOM     18  C   UNL     1      39.263  11.642  10.771  0.00  0.00    +0.000 A 
ATOM     19  C   UNL     1      39.785  10.362  10.902  0.00  0.00    +0.000 A 
ATOM     20  N   UNL     1      41.061  10.123  11.293  0.00  0.00    +0.000 NA
ATOM     21  C   UNL     1      41.792  11.232  11.550  0.00  0.00    +0.000 A 
ATOM     22  C   UNL     1      41.266  12.512  11.423  0.00  0.00    +0.000 A 
ATOM     23  N   UNL     1      39.990  12.749  11.030  0.00  0.00    +0.000 NA
ENDBRANCH  17  21
ENDBRANCH  14  17
ENDBRANCH   1  14
TORSDOF 3
ENDMDL
MODEL 7
REMARK VINA RESULT:    -5.386      4.207      7.503
REMARK INTER + INTRA:          -6.750
REMARK INTER:                  -7.141
REMARK INTRA:                   0.391
REMARK UNBOUND:                -0.420
REMARK  Name = 
REMARK  3 active torsions:
REMARK  status: ('A' for Active; 'I' for Inactive)
REMARK    1  A    between atoms: C_4  and  O_5
REMARK    2  A    between atoms: O_5  and  C_6
REMARK    3  A    between atoms: C_6  and  C_7
REMARK                            x       y       z     vdW  Elec       q    Type
REMARK                         _______ _______ _______ _____ _____    ______ ____
ROOT
ATOM      1  C   UNL     1      47.715   5.204  15.324  0.00  0.00    +0.000 A 
ATOM      2  C   UNL     1      48.462   6.186  14.677  0.00  0.00    +0.000 A 
ATOM      3  C   UNL     1      48.085   6.584  13.410  0.00  0.00    +0.000 A 
ATOM      4  N   UNL     1      47.033   6.071  12.731  0.00  0.00    +0.000 NA
ATOM      5  C   UNL     1      46.271   5.145  13.346  0.00  0.00    +0.000 A 
ATOM      6  N   UNL     1      45.221   4.562  12.664  0.00  0.00    +0.000 N 
ATOM      7  C   UNL     1      45.209   4.578  11.198  0.00  0.00    +0.000 C 
ATOM      8  C   UNL     1      43.992   5.342  10.639  0.00  0.00    +0.000 C 
ATOM      9  N   UNL     1      42.702   4.910  11.223  0.00  0.00    +0.000 NA
ATOM     10  C   UNL     1      42.788   5.080  12.688  0.00  0.00    +0.000 C 
ATOM     11  C   UNL     1      43.947   4.293  13.338  0.00  0.00    +0.000 C 
ATOM     12  C   UNL     1      46.590   4.720  14.637  0.00  0.00    +0.000 A 
ATOM     13  H   UNL     1      42.590   3.914  11.028  0.00  0.00    +0.000 HD
ENDROOT
BRANCH   1  14
ATOM     14  C   UNL     1      48.115   4.642  16.675  0.00  0.00    +0.000 C 
ATOM     15  C   UNL     1      47.170   4.883  17.856  0.00  0.00    +0.000 C 
ATOM     16  C   UNL     1      47.303   3.513  17.281  0.00  0.00    +0.000 C 
BRANCH  14  17
ATOM     17  O   UNL     1      49.488   4.838  17.086  0.00  0.00    +0.000 OA
BRANCH  17  21
ATOM     18  C   UNL     1      51.956   1.683  17.714  0.00  0.00    +0.000 A 
ATOM     19  C   UNL     1      50.786   1.508  16.988  0.00  0.00    +0.000 A 
ATOM     20  N   UNL     1      49.921   2.520  16.730  0.00  0.00    +0.000 NA
ATOM     21  C   UNL     1      50.286   3.720  17.235  0.00  0.00    +0.000 A 
ATOM     22  C   UNL     1      51.461   3.894  17.957  0.00  0.00    +0.000 A 
ATOM     23  N   UNL     1      52.324   2.881  18.215  0.00  0.00    +0.000 NA
ENDBRANCH  17  21
ENDBRANCH  14  17
ENDBRANCH   1  14
TORSDOF 3
ENDMDL
MODEL 8
REMARK VINA RESULT:    -5.166      3.548      5.021
REMARK INTER + INTRA:          -6.492
REMARK INTER:                  -6.585
REMARK INTRA:                   0.093
REMARK UNBOUND:                -0.420
REMARK  Name = 
REMARK  3 active torsions:
REMARK  status: ('A' for Active; 'I' for Inactive)
REMARK    1  A    between atoms: C_4  and  O_5
REMARK    2  A    between atoms: O_5  and  C_6
REMARK    3  A    between atoms: C_6  and  C_7
REMARK                            x       y       z     vdW  Elec       q    Type
REMARK                         _______ _______ _______ _____ _____    ______ ____
ROOT
ATOM      1  C   UNL     1      47.239   5.697  13.913  0.00  0.00    +0.000 A 
ATOM      2  C   UNL     1      47.019   4.350  13.638  0.00  0.00    +0.000 A 
ATOM      3  C   UNL     1      47.348   3.412  14.596  0.00  0.00    +0.000 A 
ATOM      4  N   UNL     1      47.892   3.708  15.799  0.00  0.00    +0.000 NA
ATOM      5  C   UNL     1      48.083   5.006  16.106  0.00  0.00    +0.000 A 
ATOM      6  N   UNL     1      48.685   5.343  17.303  0.00  0.00    +0.000 N 
ATOM      7  C   UNL     1      49.513   4.356  18.003  0.00  0.00    +0.000 C 
ATOM      8  C   UNL     1      48.950   4.013  19.396  0.00  0.00    +0.000 C 
ATOM      9  N   UNL     1      48.647   5.204  20.222  0.00  0.00    +0.000 NA
ATOM     10  C   UNL     1      47.691   6.044  19.473  0.00  0.00    +0.000 C 
ATOM     11  C   UNL     1      48.207   6.487  18.086  0.00  0.00    +0.000 C 
ATOM     12  C   UNL     1      47.748   6.002  15.186  0.00  0.00    +0.000 A 
ATOM     13  H   UNL     1      49.512   5.734  20.333  0.00  0.00    +0.000 HD
ENDROOT
BRANCH   1  14
ATOM     14  C   UNL     1      46.995   6.784  12.882  0.00  0.00    +0.000 C 
ATOM     15  C   UNL     1      47.954   7.977  12.863  0.00  0.00    +0.000 C 
ATOM     16  C   UNL     1      47.992   6.978  11.756  0.00  0.00    +0.000 C 
BRANCH  14  17
ATOM     17  O   UNL     1      45.630   7.237  12.719  0.00  0.00    +0.000 OA
BRANCH  17  21
ATOM     18  C   UNL     1      42.972   4.446  11.460  0.00  0.00    +0.000 A 
ATOM     19  C   UNL     1      42.946   4.875  12.780  0.00  0.00    +0.000 A 
ATOM     20  N   UNL     1      43.797   5.812  13.266  0.00  0.00    +0.000 NA
ATOM     21  C   UNL     1      44.677   6.302  12.364  0.00  0.00    +0.000 A 
ATOM     22  C   UNL     1      44.697   5.875  11.041  0.00  0.00    +0.000 A 
ATOM     23  N   UNL     1      43.847   4.937  10.556  0.00  0.00    +0.000 NA
ENDBRANCH  17  21
ENDBRANCH  14  17
ENDBRANCH   1  14
TORSDOF 3
ENDMDL
MODEL 9
REMARK VINA RESULT:    -4.607      4.840      8.485
REMARK INTER + INTRA:          -5.835
REMARK INTER:                  -5.511
REMARK INTRA:                  -0.324
REMARK UNBOUND:                -0.420
REMARK  Name = 
REMARK  3 active torsions:
REMARK  status: ('A' for Active; 'I' for Inactive)
REMARK    1  A    between atoms: C_4  and  O_5
REMARK    2  A    between atoms: O_5  and  C_6
REMARK    3  A    between atoms: C_6  and  C_7
REMARK                            x       y       z     vdW  Elec       q    Type
REMARK                         _______ _______ _______ _____ _____    ______ ____
ROOT
ATOM      1  C   UNL     1      49.099   6.838  16.215  0.00  0.00    +0.000 A 
ATOM      2  C   UNL     1      49.123   8.227  16.107  0.00  0.00    +0.000 A 
ATOM      3  C   UNL     1      48.475   8.824  15.044  0.00  0.00    +0.000 A 
ATOM      4  N   UNL     1      47.818   8.148  14.074  0.00  0.00    +0.000 NA
ATOM      5  C   UNL     1      47.748   6.806  14.172  0.00  0.00    +0.000 A 
ATOM      6  N   UNL     1      47.131   6.078  13.172  0.00  0.00    +0.000 N 
ATOM      7  C   UNL     1      46.978   6.665  11.838  0.00  0.00    +0.000 C 
ATOM      8  C   UNL     1      45.496   6.806  11.436  0.00  0.00    +0.000 C 
ATOM      9  N   UNL     1      44.713   5.562  11.615  0.00  0.00    +0.000 NA
ATOM     10  C   UNL     1      44.826   5.155  13.030  0.00  0.00    +0.000 C 
ATOM     11  C   UNL     1      46.281   4.930  13.497  0.00  0.00    +0.000 C 
ATOM     12  C   UNL     1      48.365   6.147  15.238  0.00  0.00    +0.000 A 
ATOM     13  H   UNL     1      45.147   4.836  11.043  0.00  0.00    +0.000 HD
ENDROOT
BRANCH   1  14
ATOM     14  C   UNL     1      49.864   6.097  17.297  0.00  0.00    +0.000 C 
ATOM     15  C   UNL     1      51.302   5.672  16.989  0.00  0.00    +0.000 C 
ATOM     16  C   UNL     1      51.047   6.771  17.965  0.00  0.00    +0.000 C 
BRANCH  14  17
ATOM     17  O   UNL     1      49.162   5.034  17.982  0.00  0.00    +0.000 OA
BRANCH  17  21
ATOM     18  C   UNL     1      47.649   5.702  21.685  0.00  0.00    +0.000 A 
ATOM     19  C   UNL     1      47.367   6.589  20.655  0.00  0.00    +0.000 A 
ATOM     20  N   UNL     1      47.829   6.422  19.391  0.00  0.00    +0.000 NA
ATOM     21  C   UNL     1      48.590   5.320  19.207  0.00  0.00    +0.000 A 
ATOM     22  C   UNL     1      48.868   4.430  20.238  0.00  0.00    +0.000 A 
ATOM     23  N   UNL     1      48.406   4.599  21.502  0.00  0.00    +0.000 NA
ENDBRANCH  17  21
ENDBRANCH  14  17
ENDBRANCH   1  14
TORSDOF 3
ENDMDL
