MODEL 1
REMARK VINA RESULT:    -7.946      0.000      0.000
REMARK INTER + INTRA:         -11.652
REMARK INTER:                 -10.733
REMARK INTRA:                  -0.918
REMARK UNBOUND:                -0.918
REMARK  Name = 
REMARK  6 active torsions:
REMARK  status: ('A' for Active; 'I' for Inactive)
REMARK    1  A    between atoms: C_2  and  C_25
REMARK    2  A    between atoms: N_3  and  C_4
REMARK    3  A    between atoms: C_4  and  C_5
REMARK    4  A    between atoms: C_8  and  C_9
REMARK    5  A    between atoms: C_9  and  N_10
REMARK    6  A    between atoms: C_11  and  C_13
REMARK                            x       y       z     vdW  Elec       q    Type
REMARK                         _______ _______ _______ _____ _____    ______ ____
ROOT
ATOM      1  C   UNL     1      44.742   5.523  10.798  0.00  0.00    +0.000 A 
ATOM      2  C   UNL     1      44.071   6.167  11.845  0.00  0.00    +0.000 A 
ATOM      3  C   UNL     1      44.753   7.032  12.707  0.00  0.00    +0.000 A 
ATOM      4  C   UNL     1      46.119   7.289  12.523  0.00  0.00    +0.000 A 
ATOM      5  C   UNL     1      46.793   6.640  11.480  0.00  0.00    +0.000 A 
ATOM      6  C   UNL     1      46.112   5.775  10.619  0.00  0.00    +0.000 A 
ENDROOT
BRANCH   1   7
ATOM      7  C   UNL     1      44.004   4.612   9.853  0.00  0.00    +0.000 C 
BRANCH   7  10
ATOM      8  O   UNL     1      45.389   2.200   9.571  0.00  0.00    +0.000 OA
ATOM      9  C   UNL     1      45.444   3.018   8.658  0.00  0.00    +0.000 C 
ATOM     10  N   UNL     1      44.837   4.250   8.731  0.00  0.00    +0.000 N 
ATOM     11  H   UNL     1      44.859   4.884   7.941  0.00  0.00    +0.000 HD
BRANCH   9  12
ATOM     12  C   UNL     1      46.234   2.703   7.442  0.00  0.00    +0.000 A 
ATOM     13  C   UNL     1      46.558   3.768   6.586  0.00  0.00    +0.000 A 
ATOM     14  C   UNL     1      47.295   3.536   5.426  0.00  0.00    +0.000 A 
ATOM     15  C   UNL     1      47.697   2.241   5.155  0.00  0.00    +0.000 A 
ATOM     16  N   UNL     1      47.417   1.192   5.955  0.00  0.00    +0.000 NA
ATOM     17  C   UNL     1      46.700   1.445   7.081  0.00  0.00    +0.000 A 
ATOM     18 CL   UNL     1      46.485   0.014   8.016  0.00  0.00    +0.000 Cl
ENDBRANCH   9  12
ENDBRANCH   7  10
ENDBRANCH   1   7
BRANCH   4  19
ATOM     19  C   UNL     1      46.869   8.200  13.463  0.00  0.00    +0.000 C 
BRANCH  19  20
ATOM     20  N   UNL     1      47.378   7.461  14.589  0.00  0.00    +0.000 N 
ATOM     21  C   UNL     1      48.654   6.962  14.613  0.00  0.00    +0.000 C 
ATOM     22  O   UNL     1      49.452   7.162  13.702  0.00  0.00    +0.000 OA
ATOM     23  H   UNL     1      46.687   7.083  15.228  0.00  0.00    +0.000 HD
BRANCH  21  24
ATOM     24  C   UNL     1      49.040   6.232  15.829  0.00  0.00    +0.000 A 
ATOM     25  C   UNL     1      50.143   6.644  16.564  0.00  0.00    +0.000 A 
ATOM     26  S   UNL     1      50.394   5.736  17.987  0.00  0.00    +0.000 S 
ATOM     27  C   UNL     1      49.071   4.724  17.640  0.00  0.00    +0.000 A 
ATOM     28  N   UNL     1      48.732   3.704  18.474  0.00  0.00    +0.000 NA
ATOM     29  C   UNL     1      47.727   2.998  18.071  0.00  0.00    +0.000 A 
ATOM     30  N   UNL     1      47.032   3.219  16.911  0.00  0.00    +0.000 N 
ATOM     31  C   UNL     1      47.327   4.247  16.050  0.00  0.00    +0.000 A 
ATOM     32  O   UNL     1      46.670   4.429  15.029  0.00  0.00    +0.000 OA
ATOM     33  C   UNL     1      48.446   5.076  16.458  0.00  0.00    +0.000 A 
ATOM     34  H   UNL     1      46.255   2.630  16.651  0.00  0.00    +0.000 HD
ENDBRANCH  21  24
ENDBRANCH  19  20
ENDBRANCH   4  19
TORSDOF 6
ENDMDL
MODEL 2
REMARK VINA RESULT:    -7.711      3.613      8.825
REMARK INTER + INTRA:         -11.333
REMARK INTER:                 -10.280
REMARK INTRA:                  -1.053
REMARK UNBOUND:                -0.918
REMARK  Name = 
REMARK  6 active torsions:
REMARK  status: ('A' for Active; 'I' for Inactive)
REMARK    1  A    between atoms: C_2  and  C_25
REMARK    2  A    between atoms: N_3  and  C_4
REMARK    3  A    between atoms: C_4  and  C_5
REMARK    4  A    between atoms: C_8  and  C_9
REMARK    5  A    between atoms: C_9  and  N_10
REMARK    6  A    between atoms: C_11  and  C_13
REMARK                            x       y       z     vdW  Elec       q    Type
REMARK                         _______ _______ _______ _____ _____    ______ ____
ROOT
ATOM      1  C   UNL     1      50.345   7.295  15.373  0.00  0.00    +0.000 A 
ATOM      2  C   UNL     1      50.761   7.941  14.202  0.00  0.00    +0.000 A 
ATOM      3  C   UNL     1      49.885   8.103  13.124  0.00  0.00    +0.000 A 
ATOM      4  C   UNL     1      48.564   7.643  13.205  0.00  0.00    +0.000 A 
ATOM      5  C   UNL     1      48.148   6.990  14.374  0.00  0.00    +0.000 A 
ATOM      6  C   UNL     1      49.024   6.827  15.451  0.00  0.00    +0.000 A 
ENDROOT
BRANCH   1   7
ATOM      7  C   UNL     1      51.279   7.144  16.544  0.00  0.00    +0.000 C 
BRANCH   7  10
ATOM      8  O   UNL     1      50.160   5.303  18.326  0.00  0.00    +0.000 OA
ATOM      9  C   UNL     1      51.051   4.923  17.572  0.00  0.00    +0.000 C 
ATOM     10  N   UNL     1      51.693   5.770  16.699  0.00  0.00    +0.000 N 
ATOM     11  H   UNL     1      52.390   5.416  16.055  0.00  0.00    +0.000 HD
BRANCH   9  12
ATOM     12  C   UNL     1      51.500   3.509  17.627  0.00  0.00    +0.000 A 
ATOM     13  C   UNL     1      52.818   3.265  18.042  0.00  0.00    +0.000 A 
ATOM     14  C   UNL     1      53.301   1.959  18.112  0.00  0.00    +0.000 A 
ATOM     15  C   UNL     1      52.446   0.927  17.769  0.00  0.00    +0.000 A 
ATOM     16  N   UNL     1      51.170   1.117  17.375  0.00  0.00    +0.000 NA
ATOM     17  C   UNL     1      50.724   2.399  17.319  0.00  0.00    +0.000 A 
ATOM     18 CL   UNL     1      49.064   2.460  16.860  0.00  0.00    +0.000 Cl
ENDBRANCH   9  12
ENDBRANCH   7  10
ENDBRANCH   1   7
BRANCH   4  19
ATOM     19  C   UNL     1      47.619   7.789  12.039  0.00  0.00    +0.000 C 
BRANCH  19  20
ATOM     20  N   UNL     1      46.911   6.558  11.801  0.00  0.00    +0.000 N 
ATOM     21  C   UNL     1      45.542   6.502  11.766  0.00  0.00    +0.000 C 
ATOM     22  O   UNL     1      44.844   7.505  11.884  0.00  0.00    +0.000 OA
ATOM     23  H   UNL     1      47.438   5.702  11.940  0.00  0.00    +0.000 HD
BRANCH  21  24
ATOM     24  C   UNL     1      44.955   5.180  11.509  0.00  0.00    +0.000 A 
ATOM     25  C   UNL     1      44.249   4.528  12.511  0.00  0.00    +0.000 A 
ATOM     26  S   UNL     1      43.566   3.046  12.012  0.00  0.00    +0.000 S 
ATOM     27  C   UNL     1      44.238   3.197  10.456  0.00  0.00    +0.000 A 
ATOM     28  N   UNL     1      44.039   2.238   9.512  0.00  0.00    +0.000 NA
ATOM     29  C   UNL     1      44.633   2.466   8.387  0.00  0.00    +0.000 A 
ATOM     30  N   UNL     1      45.408   3.565   8.122  0.00  0.00    +0.000 N 
ATOM     31  C   UNL     1      45.620   4.566   9.038  0.00  0.00    +0.000 A 
ATOM     32  O   UNL     1      46.303   5.547   8.759  0.00  0.00    +0.000 OA
ATOM     33  C   UNL     1      44.970   4.362  10.319  0.00  0.00    +0.000 A 
ATOM     34  H   UNL     1      45.847   3.685   7.222  0.00  0.00    +0.000 HD
ENDBRANCH  21  24
ENDBRANCH  19  20
ENDBRANCH   4  19
TORSDOF 6
ENDMDL
MODEL 3
REMARK VINA RESULT:    -7.514      4.004      8.496
REMARK INTER + INTRA:         -11.068
REMARK INTER:                 -10.025
REMARK INTRA:                  -1.044
REMARK UNBOUND:                -0.918
REMARK  Name = 
REMARK  6 active torsions:
REMARK  status: ('A' for Active; 'I' for Inactive)
REMARK    1  A    between atoms: C_2  and  C_25
REMARK    2  A    between atoms: N_3  and  C_4
REMARK    3  A    between atoms: C_4  and  C_5
REMARK    4  A    between atoms: C_8  and  C_9
REMARK    5  A    between atoms: C_9  and  N_10
REMARK    6  A    between atoms: C_11  and  C_13
REMARK                            x       y       z     vdW  Elec       q    Type
REMARK                         _______ _______ _______ _____ _____    ______ ____
ROOT
ATOM      1  C   UNL     1      50.147   7.262  15.718  0.00  0.00    +0.000 A 
ATOM      2  C   UNL     1      48.835   6.855  15.447  0.00  0.00    +0.000 A 
ATOM      3  C   UNL     1      48.243   7.126  14.209  0.00  0.00    +0.000 A 
ATOM      4  C   UNL     1      48.963   7.791  13.206  0.00  0.00    +0.000 A 
ATOM      5  C   UNL     1      50.273   8.204  13.479  0.00  0.00    +0.000 A 
ATOM      6  C   UNL     1      50.865   7.934  14.717  0.00  0.00    +0.000 A 
ENDROOT
BRANCH   1   7
ATOM      7  C   UNL     1      50.794   6.946  17.041  0.00  0.00    +0.000 C 
BRANCH   7  10
ATOM      8  O   UNL     1      49.932   4.860  18.691  0.00  0.00    +0.000 OA
ATOM      9  C   UNL     1      50.809   4.630  17.863  0.00  0.00    +0.000 C 
ATOM     10  N   UNL     1      51.329   5.605  17.045  0.00  0.00    +0.000 N 
ATOM     11  H   UNL     1      52.017   5.374  16.339  0.00  0.00    +0.000 HD
BRANCH   9  12
ATOM     12  C   UNL     1      51.377   3.262  17.763  0.00  0.00    +0.000 A 
ATOM     13  C   UNL     1      52.679   3.065  18.249  0.00  0.00    +0.000 A 
ATOM     14  C   UNL     1      53.269   1.804  18.181  0.00  0.00    +0.000 A 
ATOM     15  C   UNL     1      52.536   0.768  17.631  0.00  0.00    +0.000 A 
ATOM     16  N   UNL     1      51.280   0.912  17.163  0.00  0.00    +0.000 NA
ATOM     17  C   UNL     1      50.726   2.149  17.244  0.00  0.00    +0.000 A 
ATOM     18 CL   UNL     1      49.104   2.146  16.662  0.00  0.00    +0.000 Cl
ENDBRANCH   9  12
ENDBRANCH   7  10
ENDBRANCH   1   7
BRANCH   4  19
ATOM     19  C   UNL     1      48.326   8.111  11.878  0.00  0.00    +0.000 C 
BRANCH  19  20
ATOM     20  N   UNL     1      47.597   6.976  11.375  0.00  0.00    +0.000 N 
ATOM     21  C   UNL     1      46.230   6.974  11.281  0.00  0.00    +0.000 C 
ATOM     22  O   UNL     1      45.553   7.958  11.568  0.00  0.00    +0.000 OA
ATOM     23  H   UNL     1      48.095   6.091  11.363  0.00  0.00    +0.000 HD
BRANCH  21  24
ATOM     24  C   UNL     1      45.620   5.749  10.747  0.00  0.00    +0.000 A 
ATOM     25  C   UNL     1      45.784   5.419   9.409  0.00  0.00    +0.000 A 
ATOM     26  S   UNL     1      45.081   3.923   8.982  0.00  0.00    +0.000 S 
ATOM     27  C   UNL     1      44.484   3.692  10.558  0.00  0.00    +0.000 A 
ATOM     28  N   UNL     1      43.764   2.583  10.878  0.00  0.00    +0.000 NA
ATOM     29  C   UNL     1      43.346   2.553  12.101  0.00  0.00    +0.000 A 
ATOM     30  N   UNL     1      43.583   3.531  13.031  0.00  0.00    +0.000 N 
ATOM     31  C   UNL     1      44.320   4.657  12.758  0.00  0.00    +0.000 A 
ATOM     32  O   UNL     1      44.529   5.504  13.621  0.00  0.00    +0.000 OA
ATOM     33  C   UNL     1      44.818   4.739  11.398  0.00  0.00    +0.000 A 
ATOM     34  H   UNL     1      43.228   3.449  13.972  0.00  0.00    +0.000 HD
ENDBRANCH  21  24
ENDBRANCH  19  20
ENDBRANCH   4  19
TORSDOF 6
ENDMDL
MODEL 4
REMARK VINA RESULT:    -7.111      1.773      2.183
REMARK INTER + INTRA:         -10.523
REMARK INTER:                  -9.679
REMARK INTRA:                  -0.844
REMARK UNBOUND:                -0.918
REMARK  Name = 
REMARK  6 active torsions:
REMARK  status: ('A' for Active; 'I' for Inactive)
REMARK    1  A    between atoms: C_2  and  C_25
REMARK    2  A    between atoms: N_3  and  C_4
REMARK    3  A    between atoms: C_4  and  C_5
REMARK    4  A    between atoms: C_8  and  C_9
REMARK    5  A    between atoms: C_9  and  N_10
REMARK    6  A    between atoms: C_11  and  C_13
REMARK                            x       y       z     vdW  Elec       q    Type
REMARK                         _______ _______ _______ _____ _____    ______ ____
ROOT
ATOM      1  C   UNL     1      45.098   4.591  12.293  0.00  0.00    +0.000 A 
ATOM      2  C   UNL     1      46.217   4.348  13.099  0.00  0.00    +0.000 A 
ATOM      3  C   UNL     1      46.972   5.407  13.613  0.00  0.00    +0.000 A 
ATOM      4  C   UNL     1      46.608   6.734  13.350  0.00  0.00    +0.000 A 
ATOM      5  C   UNL     1      45.493   6.979  12.538  0.00  0.00    +0.000 A 
ATOM      6  C   UNL     1      44.738   5.921  12.023  0.00  0.00    +0.000 A 
ENDROOT
BRANCH   1   7
ATOM      7  C   UNL     1      44.269   3.453  11.761  0.00  0.00    +0.000 C 
BRANCH   7  10
ATOM      8  O   UNL     1      44.258   4.000   9.018  0.00  0.00    +0.000 OA
ATOM      9  C   UNL     1      44.964   3.085   9.432  0.00  0.00    +0.000 C 
ATOM     10  N   UNL     1      44.994   2.713  10.755  0.00  0.00    +0.000 N 
ATOM     11  H   UNL     1      45.623   1.985  11.073  0.00  0.00    +0.000 HD
BRANCH   9  12
ATOM     12  C   UNL     1      45.786   2.307   8.471  0.00  0.00    +0.000 A 
ATOM     13  C   UNL     1      45.678   0.908   8.514  0.00  0.00    +0.000 A 
ATOM     14  C   UNL     1      46.426   0.120   7.640  0.00  0.00    +0.000 A 
ATOM     15  C   UNL     1      47.260   0.756   6.738  0.00  0.00    +0.000 A 
ATOM     16  N   UNL     1      47.384   2.096   6.657  0.00  0.00    +0.000 NA
ATOM     17  C   UNL     1      46.643   2.841   7.518  0.00  0.00    +0.000 A 
ATOM     18 CL   UNL     1      46.872   4.526   7.241  0.00  0.00    +0.000 Cl
ENDBRANCH   9  12
ENDBRANCH   7  10
ENDBRANCH   1   7
BRANCH   4  19
ATOM     19  C   UNL     1      47.431   7.883  13.878  0.00  0.00    +0.000 C 
BRANCH  19  20
ATOM     20  N   UNL     1      47.914   7.596  15.204  0.00  0.00    +0.000 N 
ATOM     21  C   UNL     1      49.200   7.183  15.435  0.00  0.00    +0.000 C 
ATOM     22  O   UNL     1      50.027   7.085  14.533  0.00  0.00    +0.000 OA
ATOM     23  H   UNL     1      47.208   7.436  15.915  0.00  0.00    +0.000 HD
BRANCH  21  24
ATOM     24  C   UNL     1      49.556   6.930  16.838  0.00  0.00    +0.000 A 
ATOM     25  C   UNL     1      50.501   7.729  17.468  0.00  0.00    +0.000 A 
ATOM     26  S   UNL     1      50.728   7.348  19.116  0.00  0.00    +0.000 S 
ATOM     27  C   UNL     1      49.613   6.065  19.030  0.00  0.00    +0.000 A 
ATOM     28  N   UNL     1      49.341   5.300  20.121  0.00  0.00    +0.000 NA
ATOM     29  C   UNL     1      48.500   4.342  19.905  0.00  0.00    +0.000 A 
ATOM     30  N   UNL     1      47.909   4.081  18.696  0.00  0.00    +0.000 N 
ATOM     31  C   UNL     1      48.140   4.837  17.573  0.00  0.00    +0.000 A 
ATOM     32  O   UNL     1      47.577   4.587  16.512  0.00  0.00    +0.000 OA
ATOM     33  C   UNL     1      49.074   5.931  17.763  0.00  0.00    +0.000 A 
ATOM     34  H   UNL     1      47.260   3.315  18.591  0.00  0.00    +0.000 HD
ENDBRANCH  21  24
ENDBRANCH  19  20
ENDBRANCH   4  19
TORSDOF 6
ENDMDL
MODEL 5
REMARK VINA RESULT:    -6.966      3.169      4.622
REMARK INTER + INTRA:         -10.328
REMARK INTER:                  -9.171
REMARK INTRA:                  -1.157
REMARK UNBOUND:                -0.918
REMARK  Name = 
REMARK  6 active torsions:
REMARK  status: ('A' for Active; 'I' for Inactive)
REMARK    1  A    between atoms: C_2  and  C_25
REMARK    2  A    between atoms: N_3  and  C_4
REMARK    3  A    between atoms: C_4  and  C_5
REMARK    4  A    between atoms: C_8  and  C_9
REMARK    5  A    between atoms: C_9  and  N_10
REMARK    6  A    between atoms: C_11  and  C_13
REMARK                            x       y       z     vdW  Elec       q    Type
REMARK                         _______ _______ _______ _____ _____    ______ ____
ROOT
ATOM      1  C   UNL     1      47.782   7.774  13.292  0.00  0.00    +0.000 A 
ATOM      2  C   UNL     1      47.939   8.931  14.065  0.00  0.00    +0.000 A 
ATOM      3  C   UNL     1      48.362   8.850  15.396  0.00  0.00    +0.000 A 
ATOM      4  C   UNL     1      48.660   7.609  15.974  0.00  0.00    +0.000 A 
ATOM      5  C   UNL     1      48.496   6.450  15.204  0.00  0.00    +0.000 A 
ATOM      6  C   UNL     1      48.073   6.530  13.874  0.00  0.00    +0.000 A 
ENDROOT
BRANCH   1   7
ATOM      7  C   UNL     1      47.353   7.862  11.852  0.00  0.00    +0.000 C 
BRANCH   7  10
ATOM      8  O   UNL     1      44.680   7.260  11.291  0.00  0.00    +0.000 OA
ATOM      9  C   UNL     1      45.531   6.399  11.089  0.00  0.00    +0.000 C 
ATOM     10  N   UNL     1      46.861   6.588  11.382  0.00  0.00    +0.000 N 
ATOM     11  H   UNL     1      47.546   5.876  11.159  0.00  0.00    +0.000 HD
BRANCH   9  12
ATOM     12  C   UNL     1      45.118   5.077  10.554  0.00  0.00    +0.000 A 
ATOM     13  C   UNL     1      45.514   4.756   9.246  0.00  0.00    +0.000 A 
ATOM     14  C   UNL     1      45.155   3.531   8.685  0.00  0.00    +0.000 A 
ATOM     15  C   UNL     1      44.411   2.653   9.453  0.00  0.00    +0.000 A 
ATOM     16  N   UNL     1      44.020   2.918  10.716  0.00  0.00    +0.000 NA
ATOM     17  C   UNL     1      44.385   4.117  11.241  0.00  0.00    +0.000 A 
ATOM     18 CL   UNL     1      43.860   4.268  12.875  0.00  0.00    +0.000 Cl
ENDBRANCH   9  12
ENDBRANCH   7  10
ENDBRANCH   1   7
BRANCH   4  19
ATOM     19  C   UNL     1      49.091   7.509  17.416  0.00  0.00    +0.000 C 
BRANCH  19  20
ATOM     20  N   UNL     1      50.091   6.485  17.578  0.00  0.00    +0.000 N 
ATOM     21  C   UNL     1      50.357   5.916  18.795  0.00  0.00    +0.000 C 
ATOM     22  O   UNL     1      49.723   6.207  19.805  0.00  0.00    +0.000 OA
ATOM     23  H   UNL     1      50.776   6.404  16.833  0.00  0.00    +0.000 HD
BRANCH  21  24
ATOM     24  C   UNL     1      51.400   4.881  18.811  0.00  0.00    +0.000 A 
ATOM     25  C   UNL     1      52.596   5.113  19.476  0.00  0.00    +0.000 A 
ATOM     26  S   UNL     1      53.656   3.775  19.464  0.00  0.00    +0.000 S 
ATOM     27  C   UNL     1      52.575   2.858  18.523  0.00  0.00    +0.000 A 
ATOM     28  N   UNL     1      52.882   1.589  18.141  0.00  0.00    +0.000 NA
ATOM     29  C   UNL     1      51.986   1.022  17.403  0.00  0.00    +0.000 A 
ATOM     30  N   UNL     1      50.811   1.610  17.011  0.00  0.00    +0.000 N 
ATOM     31  C   UNL     1      50.452   2.881  17.388  0.00  0.00    +0.000 A 
ATOM     32  O   UNL     1      49.382   3.369  17.036  0.00  0.00    +0.000 OA
ATOM     33  C   UNL     1      51.423   3.562  18.224  0.00  0.00    +0.000 A 
ATOM     34  H   UNL     1      50.151   1.114  16.432  0.00  0.00    +0.000 HD
ENDBRANCH  21  24
ENDBRANCH  19  20
ENDBRANCH   4  19
TORSDOF 6
ENDMDL
MODEL 6
REMARK VINA RESULT:    -6.948      5.134      7.447
REMARK INTER + INTRA:         -10.304
REMARK INTER:                  -9.383
REMARK INTRA:                  -0.921
REMARK UNBOUND:                -0.918
REMARK  Name = 
REMARK  6 active torsions:
REMARK  status: ('A' for Active; 'I' for Inactive)
REMARK    1  A    between atoms: C_2  and  C_25
REMARK    2  A    between atoms: N_3  and  C_4
REMARK    3  A    between atoms: C_4  and  C_5
REMARK    4  A    between atoms: C_8  and  C_9
REMARK    5  A    between atoms: C_9  and  N_10
REMARK    6  A    between atoms: C_11  and  C_13
REMARK                            x       y       z     vdW  Elec       q    Type
REMARK                         _______ _______ _______ _____ _____    ______ ____
ROOT
ATOM      1  C   UNL     1      50.541   8.898  11.408  0.00  0.00    +0.000 A 
ATOM      2  C   UNL     1      49.983   7.614  11.446  0.00  0.00    +0.000 A 
ATOM      3  C   UNL     1      48.692   7.409  11.945  0.00  0.00    +0.000 A 
ATOM      4  C   UNL     1      47.923   8.491  12.393  0.00  0.00    +0.000 A 
ATOM      5  C   UNL     1      48.482   9.775  12.362  0.00  0.00    +0.000 A 
ATOM      6  C   UNL     1      49.773   9.980  11.865  0.00  0.00    +0.000 A 
ENDROOT
BRANCH   1   7
ATOM      7  C   UNL     1      51.919   9.123  10.847  0.00  0.00    +0.000 C 
BRANCH   7  10
ATOM      8  O   UNL     1      54.415   8.044  10.194  0.00  0.00    +0.000 OA
ATOM      9  C   UNL     1      53.438   7.705   9.533  0.00  0.00    +0.000 C 
ATOM     10  N   UNL     1      52.182   8.222   9.749  0.00  0.00    +0.000 N 
ATOM     11  H   UNL     1      51.387   7.886   9.219  0.00  0.00    +0.000 HD
BRANCH   9  12
ATOM     12  C   UNL     1      53.610   6.738   8.419  0.00  0.00    +0.000 A 
ATOM     13  C   UNL     1      54.118   5.469   8.737  0.00  0.00    +0.000 A 
ATOM     14  C   UNL     1      54.306   4.518   7.736  0.00  0.00    +0.000 A 
ATOM     15  C   UNL     1      53.972   4.860   6.438  0.00  0.00    +0.000 A 
ATOM     16  N   UNL     1      53.471   6.063   6.092  0.00  0.00    +0.000 NA
ATOM     17  C   UNL     1      53.295   6.971   7.086  0.00  0.00    +0.000 A 
ATOM     18 CL   UNL     1      52.593   8.426   6.485  0.00  0.00    +0.000 Cl
ENDBRANCH   9  12
ENDBRANCH   7  10
ENDBRANCH   1   7
BRANCH   4  19
ATOM     19  C   UNL     1      46.540   8.278  12.957  0.00  0.00    +0.000 C 
BRANCH  19  20
ATOM     20  N   UNL     1      46.068   6.951  12.659  0.00  0.00    +0.000 N 
ATOM     21  C   UNL     1      45.032   6.727  11.791  0.00  0.00    +0.000 C 
ATOM     22  O   UNL     1      44.483   7.638  11.179  0.00  0.00    +0.000 OA
ATOM     23  H   UNL     1      46.331   6.222  13.315  0.00  0.00    +0.000 HD
BRANCH  21  24
ATOM     24  C   UNL     1      44.658   5.321  11.578  0.00  0.00    +0.000 A 
ATOM     25  C   UNL     1      43.976   4.628  12.568  0.00  0.00    +0.000 A 
ATOM     26  S   UNL     1      43.550   3.038  12.119  0.00  0.00    +0.000 S 
ATOM     27  C   UNL     1      44.312   3.202  10.607  0.00  0.00    +0.000 A 
ATOM     28  N   UNL     1      44.324   2.176   9.714  0.00  0.00    +0.000 NA
ATOM     29  C   UNL     1      44.965   2.428   8.620  0.00  0.00    +0.000 A 
ATOM     30  N   UNL     1      45.595   3.613   8.340  0.00  0.00    +0.000 N 
ATOM     31  C   UNL     1      45.593   4.681   9.203  0.00  0.00    +0.000 A 
ATOM     32  O   UNL     1      46.150   5.734   8.910  0.00  0.00    +0.000 OA
ATOM     33  C   UNL     1      44.881   4.452  10.446  0.00  0.00    +0.000 A 
ATOM     34  H   UNL     1      46.081   3.747   7.466  0.00  0.00    +0.000 HD
ENDBRANCH  21  24
ENDBRANCH  19  20
ENDBRANCH   4  19
TORSDOF 6
ENDMDL
MODEL 7
REMARK VINA RESULT:    -6.717      5.667      7.856
REMARK INTER + INTRA:          -9.991
REMARK INTER:                  -8.885
REMARK INTRA:                  -1.106
REMARK UNBOUND:                -0.918
REMARK  Name = 
REMARK  6 active torsions:
REMARK  status: ('A' for Active; 'I' for Inactive)
REMARK    1  A    between atoms: C_2  and  C_25
REMARK    2  A    between atoms: N_3  and  C_4
REMARK    3  A    between atoms: C_4  and  C_5
REMARK    4  A    between atoms: C_8  and  C_9
REMARK    5  A    between atoms: C_9  and  N_10
REMARK    6  A    between atoms: C_11  and  C_13
REMARK                            x       y       z     vdW  Elec       q    Type
REMARK                         _______ _______ _______ _____ _____    ______ ____
ROOT
ATOM      1  C   UNL     1      47.927   8.157  12.590  0.00  0.00    +0.000 A 
ATOM      2  C   UNL     1      48.196   9.513  12.367  0.00  0.00    +0.000 A 
ATOM      3  C   UNL     1      49.444   9.925  11.888  0.00  0.00    +0.000 A 
ATOM      4  C   UNL     1      50.441   8.985  11.598  0.00  0.00    +0.000 A 
ATOM      5  C   UNL     1      50.175   7.628  11.827  0.00  0.00    +0.000 A 
ATOM      6  C   UNL     1      48.929   7.215  12.307  0.00  0.00    +0.000 A 
ENDROOT
BRANCH   1   7
ATOM      7  C   UNL     1      46.575   7.709  13.080  0.00  0.00    +0.000 C 
BRANCH   7  10
ATOM      8  O   UNL     1      44.586   7.548  11.121  0.00  0.00    +0.000 OA
ATOM      9  C   UNL     1      45.199   6.527  11.421  0.00  0.00    +0.000 C 
ATOM     10  N   UNL     1      46.157   6.502  12.407  0.00  0.00    +0.000 N 
ATOM     11  H   UNL     1      46.680   5.656  12.598  0.00  0.00    +0.000 HD
BRANCH   9  12
ATOM     12  C   UNL     1      44.870   5.251  10.737  0.00  0.00    +0.000 A 
ATOM     13  C   UNL     1      45.447   5.025   9.477  0.00  0.00    +0.000 A 
ATOM     14  C   UNL     1      45.175   3.848   8.782  0.00  0.00    +0.000 A 
ATOM     15  C   UNL     1      44.335   2.921   9.371  0.00  0.00    +0.000 A 
ATOM     16  N   UNL     1      43.770   3.093  10.583  0.00  0.00    +0.000 NA
ATOM     17  C   UNL     1      44.053   4.248  11.241  0.00  0.00    +0.000 A 
ATOM     18 CL   UNL     1      43.304   4.281  12.792  0.00  0.00    +0.000 Cl
ENDBRANCH   9  12
ENDBRANCH   7  10
ENDBRANCH   1   7
BRANCH   4  19
ATOM     19  C   UNL     1      51.798   9.421  11.106  0.00  0.00    +0.000 C 
BRANCH  19  20
ATOM     20  N   UNL     1      52.109   8.794   9.848  0.00  0.00    +0.000 N 
ATOM     21  C   UNL     1      53.265   9.069   9.165  0.00  0.00    +0.000 C 
ATOM     22  O   UNL     1      54.124   9.823   9.612  0.00  0.00    +0.000 OA
ATOM     23  H   UNL     1      51.331   8.368   9.353  0.00  0.00    +0.000 HD
BRANCH  21  24
ATOM     24  C   UNL     1      53.452   8.352   7.896  0.00  0.00    +0.000 A 
ATOM     25  C   UNL     1      53.505   9.059   6.703  0.00  0.00    +0.000 A 
ATOM     26  S   UNL     1      53.812   8.078   5.340  0.00  0.00    +0.000 S 
ATOM     27  C   UNL     1      53.830   6.667   6.291  0.00  0.00    +0.000 A 
ATOM     28  N   UNL     1      54.039   5.446   5.729  0.00  0.00    +0.000 NA
ATOM     29  C   UNL     1      53.994   4.460   6.564  0.00  0.00    +0.000 A 
ATOM     30  N   UNL     1      53.759   4.585   7.908  0.00  0.00    +0.000 N 
ATOM     31  C   UNL     1      53.562   5.798   8.521  0.00  0.00    +0.000 A 
ATOM     32  O   UNL     1      53.374   5.875   9.731  0.00  0.00    +0.000 OA
ATOM     33  C   UNL     1      53.607   6.942   7.628  0.00  0.00    +0.000 A 
ATOM     34  H   UNL     1      53.736   3.774   8.508  0.00  0.00    +0.000 HD
ENDBRANCH  21  24
ENDBRANCH  19  20
ENDBRANCH   4  19
TORSDOF 6
ENDMDL
MODEL 8
REMARK VINA RESULT:    -6.647      4.608      9.288
REMARK INTER + INTRA:          -9.897
REMARK INTER:                  -8.948
REMARK INTRA:                  -0.948
REMARK UNBOUND:                -0.918
REMARK  Name = 
REMARK  6 active torsions:
REMARK  status: ('A' for Active; 'I' for Inactive)
REMARK    1  A    between atoms: C_2  and  C_25
REMARK    2  A    between atoms: N_3  and  C_4
REMARK    3  A    between atoms: C_4  and  C_5
REMARK    4  A    between atoms: C_8  and  C_9
REMARK    5  A    between atoms: C_9  and  N_10
REMARK    6  A    between atoms: C_11  and  C_13
REMARK                            x       y       z     vdW  Elec       q    Type
REMARK                         _______ _______ _______ _____ _____    ______ ____
ROOT
ATOM      1  C   UNL     1      49.089   5.396  17.357  0.00  0.00    +0.000 A 
ATOM      2  C   UNL     1      48.121   4.811  16.531  0.00  0.00    +0.000 A 
ATOM      3  C   UNL     1      47.807   5.372  15.289  0.00  0.00    +0.000 A 
ATOM      4  C   UNL     1      48.475   6.517  14.836  0.00  0.00    +0.000 A 
ATOM      5  C   UNL     1      49.440   7.107  15.664  0.00  0.00    +0.000 A 
ATOM      6  C   UNL     1      49.753   6.547  16.906  0.00  0.00    +0.000 A 
ENDROOT
BRANCH   1   7
ATOM      7  C   UNL     1      49.447   4.778  18.683  0.00  0.00    +0.000 C 
BRANCH   7  10
ATOM      8  O   UNL     1      52.222   5.049  18.893  0.00  0.00    +0.000 OA
ATOM      9  C   UNL     1      51.755   3.933  18.680  0.00  0.00    +0.000 C 
ATOM     10  N   UNL     1      50.409   3.714  18.513  0.00  0.00    +0.000 N 
ATOM     11  H   UNL     1      50.049   2.775  18.387  0.00  0.00    +0.000 HD
BRANCH   9  12
ATOM     12  C   UNL     1      52.671   2.773  18.547  0.00  0.00    +0.000 A 
ATOM     13  C   UNL     1      52.290   1.745  17.670  0.00  0.00    +0.000 A 
ATOM     14  C   UNL     1      53.104   0.627  17.502  0.00  0.00    +0.000 A 
ATOM     15  C   UNL     1      54.289   0.569  18.215  0.00  0.00    +0.000 A 
ATOM     16  N   UNL     1      54.698   1.538  19.058  0.00  0.00    +0.000 NA
ATOM     17  C   UNL     1      53.887   2.619  19.201  0.00  0.00    +0.000 A 
ATOM     18 CL   UNL     1      54.583   3.784  20.262  0.00  0.00    +0.000 Cl
ENDBRANCH   9  12
ENDBRANCH   7  10
ENDBRANCH   1   7
BRANCH   4  19
ATOM     19  C   UNL     1      48.126   7.144  13.509  0.00  0.00    +0.000 C 
BRANCH  19  20
ATOM     20  N   UNL     1      47.367   6.229  12.698  0.00  0.00    +0.000 N 
ATOM     21  C   UNL     1      46.402   6.660  11.826  0.00  0.00    +0.000 C 
ATOM     22  O   UNL     1      46.166   7.852  11.649  0.00  0.00    +0.000 OA
ATOM     23  H   UNL     1      47.369   5.258  12.993  0.00  0.00    +0.000 HD
BRANCH  21  24
ATOM     24  C   UNL     1      45.709   5.616  11.059  0.00  0.00    +0.000 A 
ATOM     25  C   UNL     1      45.805   5.594   9.675  0.00  0.00    +0.000 A 
ATOM     26  S   UNL     1      45.010   4.265   8.955  0.00  0.00    +0.000 S 
ATOM     27  C   UNL     1      44.463   3.705  10.466  0.00  0.00    +0.000 A 
ATOM     28  N   UNL     1      43.700   2.583  10.561  0.00  0.00    +0.000 NA
ATOM     29  C   UNL     1      43.329   2.291  11.765  0.00  0.00    +0.000 A 
ATOM     30  N   UNL     1      43.651   3.020  12.879  0.00  0.00    +0.000 N 
ATOM     31  C   UNL     1      44.434   4.148  12.832  0.00  0.00    +0.000 A 
ATOM     32  O   UNL     1      44.720   4.765  13.853  0.00  0.00    +0.000 OA
ATOM     33  C   UNL     1      44.883   4.518  11.503  0.00  0.00    +0.000 A 
ATOM     34  H   UNL     1      43.328   2.740  13.793  0.00  0.00    +0.000 HD
ENDBRANCH  21  24
ENDBRANCH  19  20
ENDBRANCH   4  19
TORSDOF 6
ENDMDL
MODEL 9
REMARK VINA RESULT:    -6.543      3.035      4.173
REMARK INTER + INTRA:          -9.756
REMARK INTER:                  -8.890
REMARK INTRA:                  -0.866
REMARK UNBOUND:                -0.918
REMARK  Name = 
REMARK  6 active torsions:
REMARK  status: ('A' for Active; 'I' for Inactive)
REMARK    1  A    between atoms: C_2  and  C_25
REMARK    2  A    between atoms: N_3  and  C_4
REMARK    3  A    between atoms: C_4  and  C_5
REMARK    4  A    between atoms: C_8  and  C_9
REMARK    5  A    between atoms: C_9  and  N_10
REMARK    6  A    between atoms: C_11  and  C_13
REMARK                            x       y       z     vdW  Elec       q    Type
REMARK                         _______ _______ _______ _____ _____    ______ ____
ROOT
ATOM      1  C   UNL     1      46.978   7.665  12.899  0.00  0.00    +0.000 A 
ATOM      2  C   UNL     1      47.052   8.662  13.880  0.00  0.00    +0.000 A 
ATOM      3  C   UNL     1      48.173   8.765  14.711  0.00  0.00    +0.000 A 
ATOM      4  C   UNL     1      49.254   7.888  14.560  0.00  0.00    +0.000 A 
ATOM      5  C   UNL     1      49.178   6.886  13.583  0.00  0.00    +0.000 A 
ATOM      6  C   UNL     1      48.058   6.781  12.753  0.00  0.00    +0.000 A 
ENDROOT
BRANCH   1   7
ATOM      7  C   UNL     1      45.784   7.569  11.986  0.00  0.00    +0.000 C 
BRANCH   7  10
ATOM      8  O   UNL     1      43.553   6.056  11.241  0.00  0.00    +0.000 OA
ATOM      9  C   UNL     1      44.663   5.693  10.861  0.00  0.00    +0.000 C 
ATOM     10  N   UNL     1      45.818   6.346  11.220  0.00  0.00    +0.000 N 
ATOM     11  H   UNL     1      46.715   6.051  10.851  0.00  0.00    +0.000 HD
BRANCH   9  12
ATOM     12  C   UNL     1      44.784   4.475  10.022  0.00  0.00    +0.000 A 
ATOM     13  C   UNL     1      45.500   4.586   8.819  0.00  0.00    +0.000 A 
ATOM     14  C   UNL     1      45.646   3.479   7.985  0.00  0.00    +0.000 A 
ATOM     15  C   UNL     1      45.076   2.282   8.381  0.00  0.00    +0.000 A 
ATOM     16  N   UNL     1      44.391   2.130   9.532  0.00  0.00    +0.000 NA
ATOM     17  C   UNL     1      44.265   3.223  10.328  0.00  0.00    +0.000 A 
ATOM     18 CL   UNL     1      43.419   2.842  11.781  0.00  0.00    +0.000 Cl
ENDBRANCH   9  12
ENDBRANCH   7  10
ENDBRANCH   1   7
BRANCH   4  19
ATOM     19  C   UNL     1      50.456   7.974  15.467  0.00  0.00    +0.000 C 
BRANCH  19  20
ATOM     20  N   UNL     1      50.084   7.698  16.831  0.00  0.00    +0.000 N 
ATOM     21  C   UNL     1      49.840   6.424  17.273  0.00  0.00    +0.000 C 
ATOM     22  O   UNL     1      49.975   5.443  16.548  0.00  0.00    +0.000 OA
ATOM     23  H   UNL     1      49.737   8.485  17.371  0.00  0.00    +0.000 HD
BRANCH  21  24
ATOM     24  C   UNL     1      49.474   6.291  18.690  0.00  0.00    +0.000 A 
ATOM     25  C   UNL     1      49.948   5.216  19.430  0.00  0.00    +0.000 A 
ATOM     26  S   UNL     1      49.495   5.266  21.075  0.00  0.00    +0.000 S 
ATOM     27  C   UNL     1      48.602   6.695  20.843  0.00  0.00    +0.000 A 
ATOM     28  N   UNL     1      47.938   7.282  21.875  0.00  0.00    +0.000 NA
ATOM     29  C   UNL     1      47.276   8.343  21.549  0.00  0.00    +0.000 A 
ATOM     30  N   UNL     1      47.218   8.870  20.285  0.00  0.00    +0.000 N 
ATOM     31  C   UNL     1      47.887   8.322  19.218  0.00  0.00    +0.000 A 
ATOM     32  O   UNL     1      47.829   8.833  18.104  0.00  0.00    +0.000 OA
ATOM     33  C   UNL     1      48.652   7.129  19.530  0.00  0.00    +0.000 A 
ATOM     34  H   UNL     1      46.681   9.703  20.095  0.00  0.00    +0.000 HD
ENDBRANCH  21  24
ENDBRANCH  19  20
ENDBRANCH   4  19
TORSDOF 6
ENDMDL
