MODEL 1
REMARK VINA RESULT:    -7.713      0.000      0.000
REMARK INTER + INTRA:          -9.348
REMARK INTER:                  -9.516
REMARK INTRA:                   0.169
REMARK UNBOUND:                 0.169
REMARK  Name = 
REMARK  6 active torsions:
REMARK  status: ('A' for Active; 'I' for Inactive)
REMARK    1  A    between atoms: C_1  and  C_2
REMARK    2  A    between atoms: C_2  and  C_3
REMARK    3  A    between atoms: C_2  and  N_10
REMARK    4  A    between atoms: C_3  and  C_4
REMARK    5  A    between atoms: N_10  and  C_11
REMARK    6  A    between atoms: C_12  and  C_14
REMARK                            x       y       z     vdW  Elec       q    Type
REMARK                         _______ _______ _______ _____ _____    ______ ____
ROOT
ATOM      1  N   UNL     1      44.959   5.187  10.430  0.00  0.00    +0.000 N 
ATOM      2  C   UNL     1      45.986   5.766   9.558  0.00  0.00    +0.000 C 
ATOM      3  C   UNL     1      44.320   6.015  11.395  0.00  0.00    +0.000 C 
ATOM      4  O   UNL     1      43.198   5.769  11.823  0.00  0.00    +0.000 OA
ENDROOT
BRANCH   3   5
ATOM      5  C   UNL     1      45.036   7.181  11.933  0.00  0.00    +0.000 A 
ATOM      6  C   UNL     1      44.846   8.481  11.491  0.00  0.00    +0.000 A 
ATOM      7  S   UNL     1      45.755   9.634  12.359  0.00  0.00    +0.000 S 
ATOM      8  C   UNL     1      46.578   8.423  13.215  0.00  0.00    +0.000 A 
ATOM      9  N   UNL     1      47.560   8.741  14.102  0.00  0.00    +0.000 NA
ATOM     10  C   UNL     1      48.165   7.723  14.615  0.00  0.00    +0.000 A 
ATOM     11  N   UNL     1      47.869   6.418  14.329  0.00  0.00    +0.000 N 
ATOM     12  C   UNL     1      46.856   6.036  13.476  0.00  0.00    +0.000 A 
ATOM     13  O   UNL     1      46.625   4.846  13.298  0.00  0.00    +0.000 OA
ATOM     14  C   UNL     1      46.151   7.154  12.863  0.00  0.00    +0.000 A 
ATOM     15  H   UNL     1      48.381   5.663  14.759  0.00  0.00    +0.000 HD
ENDBRANCH   3   5
BRANCH   1  17
ATOM     16  C   UNL     1      44.443   2.667  10.634  0.00  0.00    +0.000 C 
ATOM     17  C   UNL     1      44.205   4.005   9.896  0.00  0.00    +0.000 C 
BRANCH  17  18
ATOM     18  C   UNL     1      44.393   3.748   8.369  0.00  0.00    +0.000 C 
BRANCH  18  19
ATOM     19  C   UNL     1      45.576   2.921   7.901  0.00  0.00    +0.000 A 
ATOM     20  C   UNL     1      45.817   1.601   8.303  0.00  0.00    +0.000 A 
ATOM     21  C   UNL     1      46.843   0.851   7.729  0.00  0.00    +0.000 A 
ATOM     22  C   UNL     1      47.666   1.418   6.761  0.00  0.00    +0.000 A 
ATOM     23  C   UNL     1      47.485   2.748   6.395  0.00  0.00    +0.000 A 
ATOM     24  C   UNL     1      46.451   3.496   6.963  0.00  0.00    +0.000 A 
ENDBRANCH  18  19
ENDBRANCH  17  18
ENDBRANCH   1  17
TORSDOF 4
ENDMDL
MODEL 2
REMARK VINA RESULT:    -7.144      1.798      2.774
REMARK INTER + INTRA:          -8.646
REMARK INTER:                  -8.688
REMARK INTRA:                   0.042
REMARK UNBOUND:                 0.169
REMARK  Name = 
REMARK  6 active torsions:
REMARK  status: ('A' for Active; 'I' for Inactive)
REMARK    1  A    between atoms: C_1  and  C_2
REMARK    2  A    between atoms: C_2  and  C_3
REMARK    3  A    between atoms: C_2  and  N_10
REMARK    4  A    between atoms: C_3  and  C_4
REMARK    5  A    between atoms: N_10  and  C_11
REMARK    6  A    between atoms: C_12  and  C_14
REMARK                            x       y       z     vdW  Elec       q    Type
REMARK                         _______ _______ _______ _____ _____    ______ ____
ROOT
ATOM      1  N   UNL     1      45.271   5.501  10.829  0.00  0.00    +0.000 N 
ATOM      2  C   UNL     1      46.149   6.026   9.779  0.00  0.00    +0.000 C 
ATOM      3  C   UNL     1      44.770   6.387  11.824  0.00  0.00    +0.000 C 
ATOM      4  O   UNL     1      43.728   6.163  12.430  0.00  0.00    +0.000 OA
ENDROOT
BRANCH   3   5
ATOM      5  C   UNL     1      45.540   7.589  12.173  0.00  0.00    +0.000 A 
ATOM      6  C   UNL     1      46.622   7.595  13.039  0.00  0.00    +0.000 A 
ATOM      7  S   UNL     1      47.367   9.122  13.187  0.00  0.00    +0.000 S 
ATOM      8  C   UNL     1      46.156   9.865  12.260  0.00  0.00    +0.000 A 
ATOM      9  N   UNL     1      46.168  11.209  12.049  0.00  0.00    +0.000 NA
ATOM     10  C   UNL     1      45.142  11.655  11.406  0.00  0.00    +0.000 A 
ATOM     11  N   UNL     1      44.113  10.877  10.947  0.00  0.00    +0.000 N 
ATOM     12  C   UNL     1      44.071   9.508  11.091  0.00  0.00    +0.000 A 
ATOM     13  O   UNL     1      43.135   8.873  10.620  0.00  0.00    +0.000 OA
ATOM     14  C   UNL     1      45.206   8.959  11.822  0.00  0.00    +0.000 A 
ATOM     15  H   UNL     1      43.334  11.285  10.453  0.00  0.00    +0.000 HD
ENDBRANCH   3   5
BRANCH   1  17
ATOM     16  C   UNL     1      44.857   2.987  11.238  0.00  0.00    +0.000 C 
ATOM     17  C   UNL     1      44.463   4.282  10.491  0.00  0.00    +0.000 C 
BRANCH  17  18
ATOM     18  C   UNL     1      44.392   3.951   8.968  0.00  0.00    +0.000 C 
BRANCH  18  19
ATOM     19  C   UNL     1      45.452   3.054   8.357  0.00  0.00    +0.000 A 
ATOM     20  C   UNL     1      45.560   1.682   8.616  0.00  0.00    +0.000 A 
ATOM     21  C   UNL     1      46.468   0.887   7.917  0.00  0.00    +0.000 A 
ATOM     22  C   UNL     1      47.306   1.458   6.964  0.00  0.00    +0.000 A 
ATOM     23  C   UNL     1      47.260   2.830   6.739  0.00  0.00    +0.000 A 
ATOM     24  C   UNL     1      46.343   3.623   7.433  0.00  0.00    +0.000 A 
ENDBRANCH  18  19
ENDBRANCH  17  18
ENDBRANCH   1  17
TORSDOF 4
ENDMDL
MODEL 3
REMARK VINA RESULT:    -7.111      1.888      2.561
REMARK INTER + INTRA:          -8.605
REMARK INTER:                  -9.100
REMARK INTRA:                   0.495
REMARK UNBOUND:                 0.169
REMARK  Name = 
REMARK  6 active torsions:
REMARK  status: ('A' for Active; 'I' for Inactive)
REMARK    1  A    between atoms: C_1  and  C_2
REMARK    2  A    between atoms: C_2  and  C_3
REMARK    3  A    between atoms: C_2  and  N_10
REMARK    4  A    between atoms: C_3  and  C_4
REMARK    5  A    between atoms: N_10  and  C_11
REMARK    6  A    between atoms: C_12  and  C_14
REMARK                            x       y       z     vdW  Elec       q    Type
REMARK                         _______ _______ _______ _____ _____    ______ ____
ROOT
ATOM      1  N   UNL     1      44.775   5.369  12.083  0.00  0.00    +0.000 N 
ATOM      2  C   UNL     1      44.348   6.675  12.595  0.00  0.00    +0.000 C 
ATOM      3  C   UNL     1      45.982   4.793  12.570  0.00  0.00    +0.000 C 
ATOM      4  O   UNL     1      46.175   3.582  12.560  0.00  0.00    +0.000 OA
ENDROOT
BRANCH   3   5
ATOM      5  C   UNL     1      47.053   5.671  13.062  0.00  0.00    +0.000 A 
ATOM      6  C   UNL     1      47.762   6.555  12.264  0.00  0.00    +0.000 A 
ATOM      7  S   UNL     1      48.887   7.500  13.129  0.00  0.00    +0.000 S 
ATOM      8  C   UNL     1      48.609   6.626  14.556  0.00  0.00    +0.000 A 
ATOM      9  N   UNL     1      49.313   6.900  15.688  0.00  0.00    +0.000 NA
ATOM     10  C   UNL     1      49.068   6.102  16.672  0.00  0.00    +0.000 A 
ATOM     11  N   UNL     1      48.176   5.065  16.629  0.00  0.00    +0.000 N 
ATOM     12  C   UNL     1      47.403   4.770  15.527  0.00  0.00    +0.000 A 
ATOM     13  O   UNL     1      46.597   3.849  15.576  0.00  0.00    +0.000 OA
ATOM     14  C   UNL     1      47.653   5.640  14.385  0.00  0.00    +0.000 A 
ATOM     15  H   UNL     1      48.030   4.471  17.431  0.00  0.00    +0.000 HD
ENDBRANCH   3   5
BRANCH   1  17
ATOM     16  C   UNL     1      43.720   3.015  12.167  0.00  0.00    +0.000 C 
ATOM     17  C   UNL     1      43.697   4.449  11.589  0.00  0.00    +0.000 C 
BRANCH  17  18
ATOM     18  C   UNL     1      43.599   4.336  10.036  0.00  0.00    +0.000 C 
BRANCH  18  19
ATOM     19  C   UNL     1      44.709   3.633   9.277  0.00  0.00    +0.000 A 
ATOM     20  C   UNL     1      44.908   2.247   9.287  0.00  0.00    +0.000 A 
ATOM     21  C   UNL     1      45.859   1.651   8.458  0.00  0.00    +0.000 A 
ATOM     22  C   UNL     1      46.647   2.435   7.624  0.00  0.00    +0.000 A 
ATOM     23  C   UNL     1      46.510   3.820   7.646  0.00  0.00    +0.000 A 
ATOM     24  C   UNL     1      45.551   4.415   8.469  0.00  0.00    +0.000 A 
ENDBRANCH  18  19
ENDBRANCH  17  18
ENDBRANCH   1  17
TORSDOF 4
ENDMDL
MODEL 4
REMARK VINA RESULT:    -7.100      2.129      2.802
REMARK INTER + INTRA:          -8.591
REMARK INTER:                  -9.257
REMARK INTRA:                   0.666
REMARK UNBOUND:                 0.169
REMARK  Name = 
REMARK  6 active torsions:
REMARK  status: ('A' for Active; 'I' for Inactive)
REMARK    1  A    between atoms: C_1  and  C_2
REMARK    2  A    between atoms: C_2  and  C_3
REMARK    3  A    between atoms: C_2  and  N_10
REMARK    4  A    between atoms: C_3  and  C_4
REMARK    5  A    between atoms: N_10  and  C_11
REMARK    6  A    between atoms: C_12  and  C_14
REMARK                            x       y       z     vdW  Elec       q    Type
REMARK                         _______ _______ _______ _____ _____    ______ ____
ROOT
ATOM      1  N   UNL     1      44.480   4.819  12.313  0.00  0.00    +0.000 N 
ATOM      2  C   UNL     1      43.981   5.983  13.052  0.00  0.00    +0.000 C 
ATOM      3  C   UNL     1      45.614   4.116  12.808  0.00  0.00    +0.000 C 
ATOM      4  O   UNL     1      45.814   2.935  12.544  0.00  0.00    +0.000 OA
ENDROOT
BRANCH   3   5
ATOM      5  C   UNL     1      46.605   4.829  13.626  0.00  0.00    +0.000 A 
ATOM      6  C   UNL     1      46.813   4.594  14.976  0.00  0.00    +0.000 A 
ATOM      7  S   UNL     1      48.085   5.515  15.639  0.00  0.00    +0.000 S 
ATOM      8  C   UNL     1      48.269   6.399  14.203  0.00  0.00    +0.000 A 
ATOM      9  N   UNL     1      49.175   7.411  14.119  0.00  0.00    +0.000 NA
ATOM     10  C   UNL     1      49.148   8.058  13.003  0.00  0.00    +0.000 A 
ATOM     11  N   UNL     1      48.305   7.778  11.962  0.00  0.00    +0.000 N 
ATOM     12  C   UNL     1      47.401   6.738  11.973  0.00  0.00    +0.000 A 
ATOM     13  O   UNL     1      46.705   6.524  10.987  0.00  0.00    +0.000 OA
ATOM     14  C   UNL     1      47.388   5.984  13.219  0.00  0.00    +0.000 A 
ATOM     15  H   UNL     1      48.327   8.323  11.114  0.00  0.00    +0.000 HD
ENDBRANCH   3   5
BRANCH   1  17
ATOM     16  C   UNL     1      43.412   2.542  11.736  0.00  0.00    +0.000 C 
ATOM     17  C   UNL     1      43.483   4.066  11.482  0.00  0.00    +0.000 C 
BRANCH  17  18
ATOM     18  C   UNL     1      43.619   4.286   9.943  0.00  0.00    +0.000 C 
BRANCH  18  19
ATOM     19  C   UNL     1      44.731   3.579   9.192  0.00  0.00    +0.000 A 
ATOM     20  C   UNL     1      44.923   2.191   9.203  0.00  0.00    +0.000 A 
ATOM     21  C   UNL     1      45.878   1.591   8.381  0.00  0.00    +0.000 A 
ATOM     22  C   UNL     1      46.676   2.373   7.553  0.00  0.00    +0.000 A 
ATOM     23  C   UNL     1      46.545   3.758   7.575  0.00  0.00    +0.000 A 
ATOM     24  C   UNL     1      45.583   4.357   8.391  0.00  0.00    +0.000 A 
ENDBRANCH  18  19
ENDBRANCH  17  18
ENDBRANCH   1  17
TORSDOF 4
ENDMDL
MODEL 5
REMARK VINA RESULT:    -6.879      1.851      2.813
REMARK INTER + INTRA:          -8.319
REMARK INTER:                  -8.668
REMARK INTRA:                   0.349
REMARK UNBOUND:                 0.169
REMARK  Name = 
REMARK  6 active torsions:
REMARK  status: ('A' for Active; 'I' for Inactive)
REMARK    1  A    between atoms: C_1  and  C_2
REMARK    2  A    between atoms: C_2  and  C_3
REMARK    3  A    between atoms: C_2  and  N_10
REMARK    4  A    between atoms: C_3  and  C_4
REMARK    5  A    between atoms: N_10  and  C_11
REMARK    6  A    between atoms: C_12  and  C_14
REMARK                            x       y       z     vdW  Elec       q    Type
REMARK                         _______ _______ _______ _____ _____    ______ ____
ROOT
ATOM      1  N   UNL     1      45.729   5.431  11.319  0.00  0.00    +0.000 N 
ATOM      2  C   UNL     1      45.974   6.250  10.128  0.00  0.00    +0.000 C 
ATOM      3  C   UNL     1      46.135   5.920  12.593  0.00  0.00    +0.000 C 
ATOM      4  O   UNL     1      45.596   5.555  13.632  0.00  0.00    +0.000 OA
ENDROOT
BRANCH   3   5
ATOM      5  C   UNL     1      47.262   6.860  12.680  0.00  0.00    +0.000 A 
ATOM      6  C   UNL     1      48.550   6.497  13.039  0.00  0.00    +0.000 A 
ATOM      7  S   UNL     1      49.663   7.787  12.972  0.00  0.00    +0.000 S 
ATOM      8  C   UNL     1      48.430   8.909  12.657  0.00  0.00    +0.000 A 
ATOM      9  N   UNL     1      48.709  10.236  12.545  0.00  0.00    +0.000 NA
ATOM     10  C   UNL     1      47.670  10.987  12.396  0.00  0.00    +0.000 A 
ATOM     11  N   UNL     1      46.382  10.529  12.338  0.00  0.00    +0.000 N 
ATOM     12  C   UNL     1      46.044   9.194  12.401  0.00  0.00    +0.000 A 
ATOM     13  O   UNL     1      44.870   8.857  12.305  0.00  0.00    +0.000 OA
ATOM     14  C   UNL     1      47.186   8.307  12.580  0.00  0.00    +0.000 A 
ATOM     15  H   UNL     1      45.608  11.166  12.225  0.00  0.00    +0.000 HD
ENDBRANCH   3   5
BRANCH   1  17
ATOM     16  C   UNL     1      44.777   3.131  11.997  0.00  0.00    +0.000 C 
ATOM     17  C   UNL     1      44.575   4.475  11.259  0.00  0.00    +0.000 C 
BRANCH  17  18
ATOM     18  C   UNL     1      44.068   4.156   9.818  0.00  0.00    +0.000 C 
BRANCH  18  19
ATOM     19  C   UNL     1      44.975   3.398   8.868  0.00  0.00    +0.000 A 
ATOM     20  C   UNL     1      45.736   4.005   7.860  0.00  0.00    +0.000 A 
ATOM     21  C   UNL     1      46.656   3.269   7.112  0.00  0.00    +0.000 A 
ATOM     22  C   UNL     1      46.810   1.906   7.341  0.00  0.00    +0.000 A 
ATOM     23  C   UNL     1      46.017   1.272   8.292  0.00  0.00    +0.000 A 
ATOM     24  C   UNL     1      45.104   2.011   9.047  0.00  0.00    +0.000 A 
ENDBRANCH  18  19
ENDBRANCH  17  18
ENDBRANCH   1  17
TORSDOF 4
ENDMDL
MODEL 6
REMARK VINA RESULT:    -6.810      4.323      7.564
REMARK INTER + INTRA:          -8.234
REMARK INTER:                  -8.317
REMARK INTRA:                   0.083
REMARK UNBOUND:                 0.169
REMARK  Name = 
REMARK  6 active torsions:
REMARK  status: ('A' for Active; 'I' for Inactive)
REMARK    1  A    between atoms: C_1  and  C_2
REMARK    2  A    between atoms: C_2  and  C_3
REMARK    3  A    between atoms: C_2  and  N_10
REMARK    4  A    between atoms: C_3  and  C_4
REMARK    5  A    between atoms: N_10  and  C_11
REMARK    6  A    between atoms: C_12  and  C_14
REMARK                            x       y       z     vdW  Elec       q    Type
REMARK                         _______ _______ _______ _____ _____    ______ ____
ROOT
ATOM      1  N   UNL     1      47.743   4.699  15.798  0.00  0.00    +0.000 N 
ATOM      2  C   UNL     1      48.320   6.019  16.069  0.00  0.00    +0.000 C 
ATOM      3  C   UNL     1      47.363   4.367  14.468  0.00  0.00    +0.000 C 
ATOM      4  O   UNL     1      47.311   3.207  14.076  0.00  0.00    +0.000 OA
ENDROOT
BRANCH   3   5
ATOM      5  C   UNL     1      46.977   5.439  13.538  0.00  0.00    +0.000 A 
ATOM      6  C   UNL     1      47.768   6.542  13.253  0.00  0.00    +0.000 A 
ATOM      7  S   UNL     1      47.094   7.574  12.075  0.00  0.00    +0.000 S 
ATOM      8  C   UNL     1      45.643   6.696  12.053  0.00  0.00    +0.000 A 
ATOM      9  N   UNL     1      44.599   7.096  11.279  0.00  0.00    +0.000 NA
ATOM     10  C   UNL     1      43.527   6.392  11.425  0.00  0.00    +0.000 A 
ATOM     11  N   UNL     1      43.411   5.319  12.267  0.00  0.00    +0.000 N 
ATOM     12  C   UNL     1      44.447   4.841  13.040  0.00  0.00    +0.000 A 
ATOM     13  O   UNL     1      44.279   3.852  13.742  0.00  0.00    +0.000 OA
ATOM     14  C   UNL     1      45.677   5.613  12.915  0.00  0.00    +0.000 A 
ATOM     15  H   UNL     1      42.544   4.809  12.343  0.00  0.00    +0.000 HD
ENDBRANCH   3   5
BRANCH   1  17
ATOM     16  C   UNL     1      46.974   2.923  17.505  0.00  0.00    +0.000 C 
ATOM     17  C   UNL     1      48.134   3.586  16.725  0.00  0.00    +0.000 C 
BRANCH  17  18
ATOM     18  C   UNL     1      49.250   3.954  17.751  0.00  0.00    +0.000 C 
BRANCH  18  19
ATOM     19  C   UNL     1      50.582   3.231  17.683  0.00  0.00    +0.000 A 
ATOM     20  C   UNL     1      51.810   3.822  18.006  0.00  0.00    +0.000 A 
ATOM     21  C   UNL     1      52.981   3.065  18.057  0.00  0.00    +0.000 A 
ATOM     22  C   UNL     1      52.948   1.707  17.758  0.00  0.00    +0.000 A 
ATOM     23  C   UNL     1      51.749   1.115  17.373  0.00  0.00    +0.000 A 
ATOM     24  C   UNL     1      50.576   1.871  17.331  0.00  0.00    +0.000 A 
ENDBRANCH  18  19
ENDBRANCH  17  18
ENDBRANCH   1  17
TORSDOF 4
ENDMDL
MODEL 7
REMARK VINA RESULT:    -6.735      4.285      6.280
REMARK INTER + INTRA:          -8.141
REMARK INTER:                  -7.885
REMARK INTRA:                  -0.255
REMARK UNBOUND:                 0.169
REMARK  Name = 
REMARK  6 active torsions:
REMARK  status: ('A' for Active; 'I' for Inactive)
REMARK    1  A    between atoms: C_1  and  C_2
REMARK    2  A    between atoms: C_2  and  C_3
REMARK    3  A    between atoms: C_2  and  N_10
REMARK    4  A    between atoms: C_3  and  C_4
REMARK    5  A    between atoms: N_10  and  C_11
REMARK    6  A    between atoms: C_12  and  C_14
REMARK                            x       y       z     vdW  Elec       q    Type
REMARK                         _______ _______ _______ _____ _____    ______ ____
ROOT
ATOM      1  N   UNL     1      47.561   4.911  15.151  0.00  0.00    +0.000 N 
ATOM      2  C   UNL     1      48.273   6.161  14.868  0.00  0.00    +0.000 C 
ATOM      3  C   UNL     1      47.556   4.400  16.479  0.00  0.00    +0.000 C 
ATOM      4  O   UNL     1      46.664   3.666  16.891  0.00  0.00    +0.000 OA
ENDROOT
BRANCH   3   5
ATOM      5  C   UNL     1      48.672   4.721  17.381  0.00  0.00    +0.000 A 
ATOM      6  C   UNL     1      48.821   5.936  18.030  0.00  0.00    +0.000 A 
ATOM      7  S   UNL     1      50.167   5.988  19.075  0.00  0.00    +0.000 S 
ATOM      8  C   UNL     1      50.706   4.469  18.547  0.00  0.00    +0.000 A 
ATOM      9  N   UNL     1      51.868   3.940  19.018  0.00  0.00    +0.000 NA
ATOM     10  C   UNL     1      52.206   2.823  18.467  0.00  0.00    +0.000 A 
ATOM     11  N   UNL     1      51.483   2.184  17.498  0.00  0.00    +0.000 N 
ATOM     12  C   UNL     1      50.278   2.649  17.016  0.00  0.00    +0.000 A 
ATOM     13  O   UNL     1      49.667   2.002  16.174  0.00  0.00    +0.000 OA
ATOM     14  C   UNL     1      49.860   3.915  17.603  0.00  0.00    +0.000 A 
ATOM     15  H   UNL     1      51.801   1.313  17.100  0.00  0.00    +0.000 HD
ENDBRANCH   3   5
BRANCH   1  17
ATOM     16  C   UNL     1      46.580   3.293  13.397  0.00  0.00    +0.000 C 
ATOM     17  C   UNL     1      46.409   4.569  14.253  0.00  0.00    +0.000 C 
BRANCH  17  18
ATOM     18  C   UNL     1      45.958   5.723  13.304  0.00  0.00    +0.000 C 
BRANCH  18  19
ATOM     19  C   UNL     1      45.274   5.377  11.995  0.00  0.00    +0.000 A 
ATOM     20  C   UNL     1      45.865   5.538  10.736  0.00  0.00    +0.000 A 
ATOM     21  C   UNL     1      45.237   5.071   9.581  0.00  0.00    +0.000 A 
ATOM     22  C   UNL     1      43.991   4.459   9.664  0.00  0.00    +0.000 A 
ATOM     23  C   UNL     1      43.357   4.349  10.897  0.00  0.00    +0.000 A 
ATOM     24  C   UNL     1      43.991   4.807  12.054  0.00  0.00    +0.000 A 
ENDBRANCH  18  19
ENDBRANCH  17  18
ENDBRANCH   1  17
TORSDOF 4
ENDMDL
MODEL 8
REMARK VINA RESULT:    -6.467      2.574      7.537
REMARK INTER + INTRA:          -7.810
REMARK INTER:                  -7.361
REMARK INTRA:                  -0.449
REMARK UNBOUND:                 0.169
REMARK  Name = 
REMARK  6 active torsions:
REMARK  status: ('A' for Active; 'I' for Inactive)
REMARK    1  A    between atoms: C_1  and  C_2
REMARK    2  A    between atoms: C_2  and  C_3
REMARK    3  A    between atoms: C_2  and  N_10
REMARK    4  A    between atoms: C_3  and  C_4
REMARK    5  A    between atoms: N_10  and  C_11
REMARK    6  A    between atoms: C_12  and  C_14
REMARK                            x       y       z     vdW  Elec       q    Type
REMARK                         _______ _______ _______ _____ _____    ______ ____
ROOT
ATOM      1  N   UNL     1      46.727   6.730  12.070  0.00  0.00    +0.000 N 
ATOM      2  C   UNL     1      47.325   5.682  12.902  0.00  0.00    +0.000 C 
ATOM      3  C   UNL     1      45.374   6.596  11.650  0.00  0.00    +0.000 C 
ATOM      4  O   UNL     1      44.681   7.567  11.366  0.00  0.00    +0.000 OA
ENDROOT
BRANCH   3   5
ATOM      5  C   UNL     1      44.792   5.254  11.506  0.00  0.00    +0.000 A 
ATOM      6  C   UNL     1      44.189   4.554  12.539  0.00  0.00    +0.000 A 
ATOM      7  S   UNL     1      43.533   3.056  12.054  0.00  0.00    +0.000 S 
ATOM      8  C   UNL     1      44.204   3.202  10.503  0.00  0.00    +0.000 A 
ATOM      9  N   UNL     1      44.061   2.206   9.586  0.00  0.00    +0.000 NA
ATOM     10  C   UNL     1      44.695   2.405   8.480  0.00  0.00    +0.000 A 
ATOM     11  N   UNL     1      45.449   3.514   8.206  0.00  0.00    +0.000 N 
ATOM     12  C   UNL     1      45.592   4.573   9.076  0.00  0.00    +0.000 A 
ATOM     13  O   UNL     1      46.253   5.550   8.745  0.00  0.00    +0.000 OA
ATOM     14  C   UNL     1      44.900   4.387  10.345  0.00  0.00    +0.000 A 
ATOM     15  H   UNL     1      45.927   3.612   7.323  0.00  0.00    +0.000 HD
ENDBRANCH   3   5
BRANCH   1  17
ATOM     16  C   UNL     1      48.785   8.268  11.833  0.00  0.00    +0.000 C 
ATOM     17  C   UNL     1      47.294   8.112  12.210  0.00  0.00    +0.000 C 
BRANCH  17  18
ATOM     18  C   UNL     1      47.087   8.762  13.614  0.00  0.00    +0.000 C 
BRANCH  18  19
ATOM     19  C   UNL     1      48.290   8.968  14.516  0.00  0.00    +0.000 A 
ATOM     20  C   UNL     1      48.990  10.176  14.623  0.00  0.00    +0.000 A 
ATOM     21  C   UNL     1      49.999  10.341  15.572  0.00  0.00    +0.000 A 
ATOM     22  C   UNL     1      50.344   9.288  16.413  0.00  0.00    +0.000 A 
ATOM     23  C   UNL     1      49.705   8.060  16.279  0.00  0.00    +0.000 A 
ATOM     24  C   UNL     1      48.689   7.899  15.335  0.00  0.00    +0.000 A 
ENDBRANCH  18  19
ENDBRANCH  17  18
ENDBRANCH   1  17
TORSDOF 4
ENDMDL
MODEL 9
REMARK VINA RESULT:    -6.448      3.416      5.781
REMARK INTER + INTRA:          -7.787
REMARK INTER:                  -7.025
REMARK INTRA:                  -0.762
REMARK UNBOUND:                 0.169
REMARK  Name = 
REMARK  6 active torsions:
REMARK  status: ('A' for Active; 'I' for Inactive)
REMARK    1  A    between atoms: C_1  and  C_2
REMARK    2  A    between atoms: C_2  and  C_3
REMARK    3  A    between atoms: C_2  and  N_10
REMARK    4  A    between atoms: C_3  and  C_4
REMARK    5  A    between atoms: N_10  and  C_11
REMARK    6  A    between atoms: C_12  and  C_14
REMARK                            x       y       z     vdW  Elec       q    Type
REMARK                         _______ _______ _______ _____ _____    ______ ____
ROOT
ATOM      1  N   UNL     1      48.003   7.978  13.734  0.00  0.00    +0.000 N 
ATOM      2  C   UNL     1      47.451   8.784  14.827  0.00  0.00    +0.000 C 
ATOM      3  C   UNL     1      48.425   6.644  13.998  0.00  0.00    +0.000 C 
ATOM      4  O   UNL     1      48.462   5.787  13.123  0.00  0.00    +0.000 OA
ENDROOT
BRANCH   3   5
ATOM      5  C   UNL     1      48.874   6.284  15.351  0.00  0.00    +0.000 A 
ATOM      6  C   UNL     1      50.004   6.807  15.960  0.00  0.00    +0.000 A 
ATOM      7  S   UNL     1      50.225   6.266  17.562  0.00  0.00    +0.000 S 
ATOM      8  C   UNL     1      48.939   5.168  17.428  0.00  0.00    +0.000 A 
ATOM      9  N   UNL     1      48.628   4.332  18.456  0.00  0.00    +0.000 NA
ATOM     10  C   UNL     1      47.689   3.488  18.189  0.00  0.00    +0.000 A 
ATOM     11  N   UNL     1      47.028   3.413  16.993  0.00  0.00    +0.000 N 
ATOM     12  C   UNL     1      47.269   4.262  15.935  0.00  0.00    +0.000 A 
ATOM     13  O   UNL     1      46.610   4.158  14.907  0.00  0.00    +0.000 OA
ATOM     14  C   UNL     1      48.330   5.227  16.187  0.00  0.00    +0.000 A 
ATOM     15  H   UNL     1      46.304   2.726  16.841  0.00  0.00    +0.000 HD
ENDBRANCH   3   5
BRANCH   1  17
ATOM     16  C   UNL     1      48.009   9.690  11.803  0.00  0.00    +0.000 C 
ATOM     17  C   UNL     1      47.548   8.317  12.345  0.00  0.00    +0.000 C 
BRANCH  17  18
ATOM     18  C   UNL     1      46.008   8.208  12.119  0.00  0.00    +0.000 C 
BRANCH  18  19
ATOM     19  C   UNL     1      45.401   6.851  11.819  0.00  0.00    +0.000 A 
ATOM     20  C   UNL     1      45.598   6.153  10.620  0.00  0.00    +0.000 A 
ATOM     21  C   UNL     1      45.127   4.850  10.461  0.00  0.00    +0.000 A 
ATOM     22  C   UNL     1      44.425   4.231  11.490  0.00  0.00    +0.000 A 
ATOM     23  C   UNL     1      44.162   4.930  12.664  0.00  0.00    +0.000 A 
ATOM     24  C   UNL     1      44.642   6.232  12.826  0.00  0.00    +0.000 A 
ENDBRANCH  18  19
ENDBRANCH  17  18
ENDBRANCH   1  17
TORSDOF 4
ENDMDL
