MODEL 1
REMARK VINA RESULT:    -7.300      0.000      0.000
REMARK INTER + INTRA:         -11.704
REMARK INTER:                 -10.287
REMARK INTRA:                  -1.417
REMARK UNBOUND:                -1.417
REMARK  Name = 
REMARK  8 active torsions:
REMARK  status: ('A' for Active; 'I' for Inactive)
REMARK    1  A    between atoms: C_1  and  N_2
REMARK    2  A    between atoms: N_2  and  C_3
REMARK    3  A    between atoms: C_3  and  C_4
REMARK    4  A    between atoms: C_7  and  C_8
REMARK    5  A    between atoms: C_8  and  C_9
REMARK    6  A    between atoms: C_9  and  N_10
REMARK    7  A    between atoms: N_10  and  C_11
REMARK    8  A    between atoms: C_19  and  C_21
REMARK                            x       y       z     vdW  Elec       q    Type
REMARK                         _______ _______ _______ _____ _____    ______ ____
ROOT
ATOM      1  C   UNL     1      47.566   7.881  13.464  0.00  0.00    +0.000 C 
ENDROOT
BRANCH   1   2
ATOM      2  C   UNL     1      46.829   6.658  13.015  0.00  0.00    +0.000 A 
ATOM      3  C   UNL     1      45.993   6.718  11.892  0.00  0.00    +0.000 A 
ATOM      4  C   UNL     1      45.249   5.606  11.519  0.00  0.00    +0.000 A 
ATOM      5  C   UNL     1      45.353   4.409  12.236  0.00  0.00    +0.000 A 
ATOM      6  C   UNL     1      46.223   4.344  13.336  0.00  0.00    +0.000 A 
ATOM      7  C   UNL     1      46.954   5.462  13.724  0.00  0.00    +0.000 A 
BRANCH   5   8
ATOM      8  C   UNL     1      44.495   3.208  11.919  0.00  0.00    +0.000 C 
BRANCH   8   9
ATOM      9  C   UNL     1      43.955   3.108  10.486  0.00  0.00    +0.000 C 
BRANCH   9  10
ATOM     10  N   UNL     1      44.512   1.974   9.743  0.00  0.00    +0.000 NA
ATOM     11  H   UNL     1      43.788   1.522   9.184  0.00  0.00    +0.000 HD
BRANCH  10  12
ATOM     12  C   UNL     1      45.666   2.344   8.915  0.00  0.00    +0.000 C 
ATOM     13  C   UNL     1      45.376   3.503   7.952  0.00  0.00    +0.000 C 
ATOM     14  C   UNL     1      46.567   3.743   7.037  0.00  0.00    +0.000 C 
ATOM     15  O   UNL     1      46.901   2.556   6.323  0.00  0.00    +0.000 OA
ATOM     16  C   UNL     1      47.285   1.495   7.196  0.00  0.00    +0.000 C 
ATOM     17  C   UNL     1      46.139   1.116   8.125  0.00  0.00    +0.000 C 
ENDBRANCH  10  12
ENDBRANCH   9  10
ENDBRANCH   8   9
ENDBRANCH   5   8
ENDBRANCH   1   2
BRANCH   1  19
ATOM     18  C   UNL     1      49.721   7.475  12.167  0.00  0.00    +0.000 C 
ATOM     19  N   UNL     1      49.029   7.860  13.396  0.00  0.00    +0.000 N 
ATOM     20  C   UNL     1      49.853   8.331  14.435  0.00  0.00    +0.000 C 
ATOM     21  O   UNL     1      51.072   8.403  14.290  0.00  0.00    +0.000 OA
BRANCH  20  22
ATOM     22  C   UNL     1      49.245   8.712  15.721  0.00  0.00    +0.000 A 
ATOM     23  C   UNL     1      48.862  10.000  16.061  0.00  0.00    +0.000 A 
ATOM     24  S   UNL     1      48.159  10.128  17.608  0.00  0.00    +0.000 S 
ATOM     25  C   UNL     1      48.188   8.443  17.808  0.00  0.00    +0.000 A 
ATOM     26  N   UNL     1      47.613   7.867  18.898  0.00  0.00    +0.000 NA
ATOM     27  C   UNL     1      47.662   6.580  18.896  0.00  0.00    +0.000 A 
ATOM     28  N   UNL     1      48.264   5.814  17.927  0.00  0.00    +0.000 N 
ATOM     29  C   UNL     1      48.966   6.361  16.875  0.00  0.00    +0.000 A 
ATOM     30  O   UNL     1      49.689   5.660  16.170  0.00  0.00    +0.000 OA
ATOM     31  C   UNL     1      48.832   7.805  16.760  0.00  0.00    +0.000 A 
ATOM     32  H   UNL     1      48.322   4.814  18.024  0.00  0.00    +0.000 HD
ENDBRANCH  20  22
ENDBRANCH   1  19
TORSDOF 7
ENDMDL
MODEL 2
REMARK VINA RESULT:    -7.234      2.486      3.603
REMARK INTER + INTRA:         -11.611
REMARK INTER:                 -10.434
REMARK INTRA:                  -1.177
REMARK UNBOUND:                -1.417
REMARK  Name = 
REMARK  8 active torsions:
REMARK  status: ('A' for Active; 'I' for Inactive)
REMARK    1  A    between atoms: C_1  and  N_2
REMARK    2  A    between atoms: N_2  and  C_3
REMARK    3  A    between atoms: C_3  and  C_4
REMARK    4  A    between atoms: C_7  and  C_8
REMARK    5  A    between atoms: C_8  and  C_9
REMARK    6  A    between atoms: C_9  and  N_10
REMARK    7  A    between atoms: N_10  and  C_11
REMARK    8  A    between atoms: C_19  and  C_21
REMARK                            x       y       z     vdW  Elec       q    Type
REMARK                         _______ _______ _______ _____ _____    ______ ____
ROOT
ATOM      1  C   UNL     1      49.079   6.558  14.785  0.00  0.00    +0.000 C 
ENDROOT
BRANCH   1   2
ATOM      2  C   UNL     1      47.973   6.407  13.790  0.00  0.00    +0.000 A 
ATOM      3  C   UNL     1      47.059   5.352  13.916  0.00  0.00    +0.000 A 
ATOM      4  C   UNL     1      46.077   5.165  12.951  0.00  0.00    +0.000 A 
ATOM      5  C   UNL     1      45.969   6.043  11.868  0.00  0.00    +0.000 A 
ATOM      6  C   UNL     1      46.862   7.122  11.770  0.00  0.00    +0.000 A 
ATOM      7  C   UNL     1      47.858   7.301  12.724  0.00  0.00    +0.000 A 
BRANCH   5   8
ATOM      8  C   UNL     1      44.976   5.822  10.753  0.00  0.00    +0.000 C 
BRANCH   8   9
ATOM      9  C   UNL     1      44.734   4.368  10.325  0.00  0.00    +0.000 C 
BRANCH   9  10
ATOM     10  N   UNL     1      44.186   4.254   8.971  0.00  0.00    +0.000 NA
ATOM     11  H   UNL     1      44.132   5.173   8.529  0.00  0.00    +0.000 HD
BRANCH  10  12
ATOM     12  C   UNL     1      44.928   3.308   8.130  0.00  0.00    +0.000 C 
ATOM     13  C   UNL     1      45.374   2.047   8.883  0.00  0.00    +0.000 C 
ATOM     14  C   UNL     1      46.248   1.178   7.991  0.00  0.00    +0.000 C 
ATOM     15  O   UNL     1      47.371   1.914   7.516  0.00  0.00    +0.000 OA
ATOM     16  C   UNL     1      46.982   3.030   6.716  0.00  0.00    +0.000 C 
ATOM     17  C   UNL     1      46.151   4.014   7.528  0.00  0.00    +0.000 C 
ENDBRANCH  10  12
ENDBRANCH   9  10
ENDBRANCH   8   9
ENDBRANCH   5   8
ENDBRANCH   1   2
BRANCH   1  19
ATOM     18  C   UNL     1      48.785   8.814  15.932  0.00  0.00    +0.000 C 
ATOM     19  N   UNL     1      48.814   7.354  15.987  0.00  0.00    +0.000 N 
ATOM     20  C   UNL     1      48.438   6.784  17.217  0.00  0.00    +0.000 C 
ATOM     21  O   UNL     1      48.111   7.494  18.167  0.00  0.00    +0.000 OA
BRANCH  20  22
ATOM     22  C   UNL     1      48.466   5.320  17.373  0.00  0.00    +0.000 A 
ATOM     23  C   UNL     1      47.357   4.495  17.275  0.00  0.00    +0.000 A 
ATOM     24  S   UNL     1      47.706   2.839  17.473  0.00  0.00    +0.000 S 
ATOM     25  C   UNL     1      49.374   3.153  17.529  0.00  0.00    +0.000 A 
ATOM     26  N   UNL     1      50.267   2.129  17.572  0.00  0.00    +0.000 NA
ATOM     27  C   UNL     1      51.498   2.508  17.558  0.00  0.00    +0.000 A 
ATOM     28  N   UNL     1      51.921   3.816  17.543  0.00  0.00    +0.000 N 
ATOM     29  C   UNL     1      51.051   4.881  17.627  0.00  0.00    +0.000 A 
ATOM     30  O   UNL     1      51.466   6.015  17.855  0.00  0.00    +0.000 OA
ATOM     31  C   UNL     1      49.648   4.511  17.515  0.00  0.00    +0.000 A 
ATOM     32  H   UNL     1      52.900   4.040  17.600  0.00  0.00    +0.000 HD
ENDBRANCH  20  22
ENDBRANCH   1  19
TORSDOF 7
ENDMDL
MODEL 3
REMARK VINA RESULT:    -6.989      4.164      8.354
REMARK INTER + INTRA:         -11.266
REMARK INTER:                 -10.000
REMARK INTRA:                  -1.266
REMARK UNBOUND:                -1.417
REMARK  Name = 
REMARK  8 active torsions:
REMARK  status: ('A' for Active; 'I' for Inactive)
REMARK    1  A    between atoms: C_1  and  N_2
REMARK    2  A    between atoms: N_2  and  C_3
REMARK    3  A    between atoms: C_3  and  C_4
REMARK    4  A    between atoms: C_7  and  C_8
REMARK    5  A    between atoms: C_8  and  C_9
REMARK    6  A    between atoms: C_9  and  N_10
REMARK    7  A    between atoms: N_10  and  C_11
REMARK    8  A    between atoms: C_19  and  C_21
REMARK                            x       y       z     vdW  Elec       q    Type
REMARK                         _______ _______ _______ _____ _____    ______ ____
ROOT
ATOM      1  C   UNL     1      47.383   6.479  12.567  0.00  0.00    +0.000 C 
ENDROOT
BRANCH   1   2
ATOM      2  C   UNL     1      47.519   5.838  13.912  0.00  0.00    +0.000 A 
ATOM      3  C   UNL     1      48.351   6.416  14.880  0.00  0.00    +0.000 A 
ATOM      4  C   UNL     1      48.539   5.781  16.102  0.00  0.00    +0.000 A 
ATOM      5  C   UNL     1      47.876   4.584  16.391  0.00  0.00    +0.000 A 
ATOM      6  C   UNL     1      47.012   4.033  15.432  0.00  0.00    +0.000 A 
ATOM      7  C   UNL     1      46.836   4.655  14.200  0.00  0.00    +0.000 A 
BRANCH   5   8
ATOM      8  C   UNL     1      48.123   3.819  17.668  0.00  0.00    +0.000 C 
BRANCH   8   9
ATOM      9  C   UNL     1      49.586   3.506  18.011  0.00  0.00    +0.000 C 
BRANCH   9  10
ATOM     10  N   UNL     1      50.192   2.535  17.096  0.00  0.00    +0.000 NA
ATOM     11  H   UNL     1      50.008   2.795  16.127  0.00  0.00    +0.000 HD
BRANCH  10  12
ATOM     12  C   UNL     1      51.628   2.348  17.330  0.00  0.00    +0.000 C 
ATOM     13  C   UNL     1      52.007   0.898  17.659  0.00  0.00    +0.000 C 
ATOM     14  C   UNL     1      53.481   0.803  18.018  0.00  0.00    +0.000 C 
ATOM     15  O   UNL     1      53.792   1.671  19.104  0.00  0.00    +0.000 OA
ATOM     16  C   UNL     1      53.555   3.040  18.780  0.00  0.00    +0.000 C 
ATOM     17  C   UNL     1      52.084   3.275  18.465  0.00  0.00    +0.000 C 
ENDBRANCH  10  12
ENDBRANCH   9  10
ENDBRANCH   8   9
ENDBRANCH   5   8
ENDBRANCH   1   2
BRANCH   1  19
ATOM     18  C   UNL     1      46.461   8.803  13.059  0.00  0.00    +0.000 C 
ATOM     19  N   UNL     1      46.348   7.504  12.401  0.00  0.00    +0.000 N 
ATOM     20  C   UNL     1      45.270   7.367  11.506  0.00  0.00    +0.000 C 
ATOM     21  O   UNL     1      44.491   8.299  11.311  0.00  0.00    +0.000 OA
BRANCH  20  22
ATOM     22  C   UNL     1      45.060   6.082  10.819  0.00  0.00    +0.000 A 
ATOM     23  C   UNL     1      45.608   5.745   9.592  0.00  0.00    +0.000 A 
ATOM     24  S   UNL     1      45.210   4.174   9.063  0.00  0.00    +0.000 S 
ATOM     25  C   UNL     1      44.433   3.830  10.533  0.00  0.00    +0.000 A 
ATOM     26  N   UNL     1      43.959   2.581  10.786  0.00  0.00    +0.000 NA
ATOM     27  C   UNL     1      43.440   2.447  11.958  0.00  0.00    +0.000 A 
ATOM     28  N   UNL     1      43.317   3.452  12.886  0.00  0.00    +0.000 N 
ATOM     29  C   UNL     1      43.670   4.757  12.622  0.00  0.00    +0.000 A 
ATOM     30  O   UNL     1      43.327   5.665  13.375  0.00  0.00    +0.000 OA
ATOM     31  C   UNL     1      44.378   4.937  11.363  0.00  0.00    +0.000 A 
ATOM     32  H   UNL     1      42.841   3.291  13.758  0.00  0.00    +0.000 HD
ENDBRANCH  20  22
ENDBRANCH   1  19
TORSDOF 7
ENDMDL
MODEL 4
REMARK VINA RESULT:    -6.790      3.280      9.401
REMARK INTER + INTRA:         -10.986
REMARK INTER:                  -9.616
REMARK INTRA:                  -1.370
REMARK UNBOUND:                -1.417
REMARK  Name = 
REMARK  8 active torsions:
REMARK  status: ('A' for Active; 'I' for Inactive)
REMARK    1  A    between atoms: C_1  and  N_2
REMARK    2  A    between atoms: N_2  and  C_3
REMARK    3  A    between atoms: C_3  and  C_4
REMARK    4  A    between atoms: C_7  and  C_8
REMARK    5  A    between atoms: C_8  and  C_9
REMARK    6  A    between atoms: C_9  and  N_10
REMARK    7  A    between atoms: N_10  and  C_11
REMARK    8  A    between atoms: C_19  and  C_21
REMARK                            x       y       z     vdW  Elec       q    Type
REMARK                         _______ _______ _______ _____ _____    ______ ____
ROOT
ATOM      1  C   UNL     1      47.146   6.156  12.415  0.00  0.00    +0.000 C 
ENDROOT
BRANCH   1   2
ATOM      2  C   UNL     1      47.433   5.745  13.825  0.00  0.00    +0.000 A 
ATOM      3  C   UNL     1      48.309   6.505  14.610  0.00  0.00    +0.000 A 
ATOM      4  C   UNL     1      48.637   6.084  15.892  0.00  0.00    +0.000 A 
ATOM      5  C   UNL     1      48.071   4.920  16.424  0.00  0.00    +0.000 A 
ATOM      6  C   UNL     1      47.162   4.185  15.646  0.00  0.00    +0.000 A 
ATOM      7  C   UNL     1      46.847   4.594  14.355  0.00  0.00    +0.000 A 
BRANCH   5   8
ATOM      8  C   UNL     1      48.470   4.381  17.776  0.00  0.00    +0.000 C 
BRANCH   8   9
ATOM      9  C   UNL     1      48.635   5.407  18.905  0.00  0.00    +0.000 C 
BRANCH   9  10
ATOM     10  N   UNL     1      47.499   5.428  19.830  0.00  0.00    +0.000 NA
ATOM     11  H   UNL     1      47.621   4.726  20.561  0.00  0.00    +0.000 HD
BRANCH  10  12
ATOM     12  C   UNL     1      47.254   6.754  20.407  0.00  0.00    +0.000 C 
ATOM     13  C   UNL     1      47.507   7.902  19.420  0.00  0.00    +0.000 C 
ATOM     14  C   UNL     1      47.363   9.244  20.119  0.00  0.00    +0.000 C 
ATOM     15  O   UNL     1      48.244   9.328  21.236  0.00  0.00    +0.000 OA
ATOM     16  C   UNL     1      47.954   8.338  22.223  0.00  0.00    +0.000 C 
ATOM     17  C   UNL     1      48.132   6.937  21.653  0.00  0.00    +0.000 C 
ENDBRANCH  10  12
ENDBRANCH   9  10
ENDBRANCH   8   9
ENDBRANCH   5   8
ENDBRANCH   1   2
BRANCH   1  19
ATOM     18  C   UNL     1      46.224   8.529  12.333  0.00  0.00    +0.000 C 
ATOM     19  N   UNL     1      46.038   7.087  12.187  0.00  0.00    +0.000 N 
ATOM     20  C   UNL     1      44.785   6.683  11.688  0.00  0.00    +0.000 C 
ATOM     21  O   UNL     1      43.923   7.513  11.402  0.00  0.00    +0.000 OA
BRANCH  20  22
ATOM     22  C   UNL     1      44.498   5.246  11.538  0.00  0.00    +0.000 A 
ATOM     23  C   UNL     1      43.771   4.489  12.441  0.00  0.00    +0.000 A 
ATOM     24  S   UNL     1      43.578   2.859  11.982  0.00  0.00    +0.000 S 
ATOM     25  C   UNL     1      44.315   3.150  10.481  0.00  0.00    +0.000 A 
ATOM     26  N   UNL     1      44.365   2.173   9.537  0.00  0.00    +0.000 NA
ATOM     27  C   UNL     1      44.905   2.545   8.428  0.00  0.00    +0.000 A 
ATOM     28  N   UNL     1      45.431   3.791   8.185  0.00  0.00    +0.000 N 
ATOM     29  C   UNL     1      45.512   4.767   9.155  0.00  0.00    +0.000 A 
ATOM     30  O   UNL     1      46.199   5.771   8.979  0.00  0.00    +0.000 OA
ATOM     31  C   UNL     1      44.803   4.443  10.383  0.00  0.00    +0.000 A 
ATOM     32  H   UNL     1      45.897   3.993   7.316  0.00  0.00    +0.000 HD
ENDBRANCH  20  22
ENDBRANCH   1  19
TORSDOF 7
ENDMDL
MODEL 5
REMARK VINA RESULT:    -6.607      2.424      3.683
REMARK INTER + INTRA:         -10.728
REMARK INTER:                  -9.637
REMARK INTRA:                  -1.090
REMARK UNBOUND:                -1.417
REMARK  Name = 
REMARK  8 active torsions:
REMARK  status: ('A' for Active; 'I' for Inactive)
REMARK    1  A    between atoms: C_1  and  N_2
REMARK    2  A    between atoms: N_2  and  C_3
REMARK    3  A    between atoms: C_3  and  C_4
REMARK    4  A    between atoms: C_7  and  C_8
REMARK    5  A    between atoms: C_8  and  C_9
REMARK    6  A    between atoms: C_9  and  N_10
REMARK    7  A    between atoms: N_10  and  C_11
REMARK    8  A    between atoms: C_19  and  C_21
REMARK                            x       y       z     vdW  Elec       q    Type
REMARK                         _______ _______ _______ _____ _____    ______ ____
ROOT
ATOM      1  C   UNL     1      49.531   7.840  15.225  0.00  0.00    +0.000 C 
ENDROOT
BRANCH   1   2
ATOM      2  C   UNL     1      48.573   7.480  14.134  0.00  0.00    +0.000 A 
ATOM      3  C   UNL     1      47.934   6.233  14.149  0.00  0.00    +0.000 A 
ATOM      4  C   UNL     1      47.104   5.866  13.097  0.00  0.00    +0.000 A 
ATOM      5  C   UNL     1      46.869   6.747  12.036  0.00  0.00    +0.000 A 
ATOM      6  C   UNL     1      47.480   8.010  12.049  0.00  0.00    +0.000 A 
ATOM      7  C   UNL     1      48.328   8.373  13.090  0.00  0.00    +0.000 A 
BRANCH   5   8
ATOM      8  C   UNL     1      46.047   6.352  10.834  0.00  0.00    +0.000 C 
BRANCH   8   9
ATOM      9  C   UNL     1      45.175   5.096  10.978  0.00  0.00    +0.000 C 
BRANCH   9  10
ATOM     10  N   UNL     1      44.211   4.942   9.885  0.00  0.00    +0.000 NA
ATOM     11  H   UNL     1      44.089   5.825   9.389  0.00  0.00    +0.000 HD
BRANCH  10  12
ATOM     12  C   UNL     1      44.565   3.860   8.959  0.00  0.00    +0.000 C 
ATOM     13  C   UNL     1      44.906   2.542   9.666  0.00  0.00    +0.000 C 
ATOM     14  C   UNL     1      45.390   1.510   8.659  0.00  0.00    +0.000 C 
ATOM     15  O   UNL     1      46.510   2.003   7.929  0.00  0.00    +0.000 OA
ATOM     16  C   UNL     1      46.185   3.168   7.172  0.00  0.00    +0.000 C 
ATOM     17  C   UNL     1      45.747   4.304   8.086  0.00  0.00    +0.000 C 
ENDBRANCH  10  12
ENDBRANCH   9  10
ENDBRANCH   8   9
ENDBRANCH   5   8
ENDBRANCH   1   2
BRANCH   1  19
ATOM     18  C   UNL     1      48.005   9.199  16.747  0.00  0.00    +0.000 C 
ATOM     19  N   UNL     1      48.979   8.127  16.552  0.00  0.00    +0.000 N 
ATOM     20  C   UNL     1      49.233   7.323  17.680  0.00  0.00    +0.000 C 
ATOM     21  O   UNL     1      48.656   7.533  18.746  0.00  0.00    +0.000 OA
BRANCH  20  22
ATOM     22  C   UNL     1      50.223   6.238  17.584  0.00  0.00    +0.000 A 
ATOM     23  C   UNL     1      51.585   6.394  17.784  0.00  0.00    +0.000 A 
ATOM     24  S   UNL     1      52.477   4.949  17.635  0.00  0.00    +0.000 S 
ATOM     25  C   UNL     1      51.055   4.038  17.465  0.00  0.00    +0.000 A 
ATOM     26  N   UNL     1      51.108   2.680  17.412  0.00  0.00    +0.000 NA
ATOM     27  C   UNL     1      49.953   2.115  17.335  0.00  0.00    +0.000 A 
ATOM     28  N   UNL     1      48.752   2.779  17.269  0.00  0.00    +0.000 N 
ATOM     29  C   UNL     1      48.663   4.152  17.193  0.00  0.00    +0.000 A 
ATOM     30  O   UNL     1      47.604   4.697  16.894  0.00  0.00    +0.000 OA
ATOM     31  C   UNL     1      49.927   4.840  17.406  0.00  0.00    +0.000 A 
ATOM     32  H   UNL     1      47.891   2.273  17.144  0.00  0.00    +0.000 HD
ENDBRANCH  20  22
ENDBRANCH   1  19
TORSDOF 7
ENDMDL
MODEL 6
REMARK VINA RESULT:    -6.587      3.021      4.620
REMARK INTER + INTRA:         -10.700
REMARK INTER:                  -9.273
REMARK INTRA:                  -1.427
REMARK UNBOUND:                -1.417
REMARK  Name = 
REMARK  8 active torsions:
REMARK  status: ('A' for Active; 'I' for Inactive)
REMARK    1  A    between atoms: C_1  and  N_2
REMARK    2  A    between atoms: N_2  and  C_3
REMARK    3  A    between atoms: C_3  and  C_4
REMARK    4  A    between atoms: C_7  and  C_8
REMARK    5  A    between atoms: C_8  and  C_9
REMARK    6  A    between atoms: C_9  and  N_10
REMARK    7  A    between atoms: N_10  and  C_11
REMARK    8  A    between atoms: C_19  and  C_21
REMARK                            x       y       z     vdW  Elec       q    Type
REMARK                         _______ _______ _______ _____ _____    ______ ____
ROOT
ATOM      1  C   UNL     1      49.399   8.115  16.141  0.00  0.00    +0.000 C 
ENDROOT
BRANCH   1   2
ATOM      2  C   UNL     1      48.491   7.813  14.990  0.00  0.00    +0.000 A 
ATOM      3  C   UNL     1      48.421   6.511  14.478  0.00  0.00    +0.000 A 
ATOM      4  C   UNL     1      47.638   6.245  13.362  0.00  0.00    +0.000 A 
ATOM      5  C   UNL     1      46.887   7.261  12.762  0.00  0.00    +0.000 A 
ATOM      6  C   UNL     1      46.931   8.555  13.306  0.00  0.00    +0.000 A 
ATOM      7  C   UNL     1      47.729   8.829  14.411  0.00  0.00    +0.000 A 
BRANCH   5   8
ATOM      8  C   UNL     1      46.096   7.033  11.497  0.00  0.00    +0.000 C 
BRANCH   8   9
ATOM      9  C   UNL     1      44.683   7.630  11.452  0.00  0.00    +0.000 C 
BRANCH   9  10
ATOM     10  N   UNL     1      43.679   6.685  10.957  0.00  0.00    +0.000 NA
ATOM     11  H   UNL     1      43.494   6.846   9.966  0.00  0.00    +0.000 HD
BRANCH  10  12
ATOM     12  C   UNL     1      44.040   5.285  11.205  0.00  0.00    +0.000 C 
ATOM     13  C   UNL     1      43.946   4.401   9.955  0.00  0.00    +0.000 C 
ATOM     14  C   UNL     1      44.202   2.946  10.312  0.00  0.00    +0.000 C 
ATOM     15  O   UNL     1      43.293   2.506  11.318  0.00  0.00    +0.000 OA
ATOM     16  C   UNL     1      43.441   3.241  12.532  0.00  0.00    +0.000 C 
ATOM     17  C   UNL     1      43.140   4.717  12.312  0.00  0.00    +0.000 C 
ENDBRANCH  10  12
ENDBRANCH   9  10
ENDBRANCH   8   9
ENDBRANCH   5   8
ENDBRANCH   1   2
BRANCH   1  19
ATOM     18  C   UNL     1      47.875   9.109  17.924  0.00  0.00    +0.000 C 
ATOM     19  N   UNL     1      48.825   8.088  17.489  0.00  0.00    +0.000 N 
ATOM     20  C   UNL     1      49.033   7.027  18.390  0.00  0.00    +0.000 C 
ATOM     21  O   UNL     1      48.438   6.989  19.467  0.00  0.00    +0.000 OA
BRANCH  20  22
ATOM     22  C   UNL     1      49.996   5.967  18.048  0.00  0.00    +0.000 A 
ATOM     23  C   UNL     1      51.363   6.046  18.262  0.00  0.00    +0.000 A 
ATOM     24  S   UNL     1      52.220   4.650  17.790  0.00  0.00    +0.000 S 
ATOM     25  C   UNL     1      50.775   3.829  17.442  0.00  0.00    +0.000 A 
ATOM     26  N   UNL     1      50.796   2.515  17.092  0.00  0.00    +0.000 NA
ATOM     27  C   UNL     1      49.627   2.006  16.907  0.00  0.00    +0.000 A 
ATOM     28  N   UNL     1      48.442   2.694  17.002  0.00  0.00    +0.000 N 
ATOM     29  C   UNL     1      48.385   4.052  17.229  0.00  0.00    +0.000 A 
ATOM     30  O   UNL     1      47.337   4.672  17.068  0.00  0.00    +0.000 OA
ATOM     31  C   UNL     1      49.666   4.650  17.572  0.00  0.00    +0.000 A 
ATOM     32  H   UNL     1      47.568   2.247  16.779  0.00  0.00    +0.000 HD
ENDBRANCH  20  22
ENDBRANCH   1  19
TORSDOF 7
ENDMDL
MODEL 7
REMARK VINA RESULT:    -6.408      3.084      4.811
REMARK INTER + INTRA:         -10.448
REMARK INTER:                  -9.192
REMARK INTRA:                  -1.256
REMARK UNBOUND:                -1.417
REMARK  Name = 
REMARK  8 active torsions:
REMARK  status: ('A' for Active; 'I' for Inactive)
REMARK    1  A    between atoms: C_1  and  N_2
REMARK    2  A    between atoms: N_2  and  C_3
REMARK    3  A    between atoms: C_3  and  C_4
REMARK    4  A    between atoms: C_7  and  C_8
REMARK    5  A    between atoms: C_8  and  C_9
REMARK    6  A    between atoms: C_9  and  N_10
REMARK    7  A    between atoms: N_10  and  C_11
REMARK    8  A    between atoms: C_19  and  C_21
REMARK                            x       y       z     vdW  Elec       q    Type
REMARK                         _______ _______ _______ _____ _____    ______ ____
ROOT
ATOM      1  C   UNL     1      49.856   6.937  15.917  0.00  0.00    +0.000 C 
ENDROOT
BRANCH   1   2
ATOM      2  C   UNL     1      48.827   7.035  14.835  0.00  0.00    +0.000 A 
ATOM      3  C   UNL     1      48.039   5.921  14.516  0.00  0.00    +0.000 A 
ATOM      4  C   UNL     1      47.138   5.987  13.461  0.00  0.00    +0.000 A 
ATOM      5  C   UNL     1      46.982   7.170  12.732  0.00  0.00    +0.000 A 
ATOM      6  C   UNL     1      47.746   8.295  13.083  0.00  0.00    +0.000 A 
ATOM      7  C   UNL     1      48.663   8.227  14.126  0.00  0.00    +0.000 A 
BRANCH   5   8
ATOM      8  C   UNL     1      46.081   7.255  11.524  0.00  0.00    +0.000 C 
BRANCH   8   9
ATOM      9  C   UNL     1      44.643   7.734  11.770  0.00  0.00    +0.000 C 
BRANCH   9  10
ATOM     10  N   UNL     1      43.636   6.826  11.215  0.00  0.00    +0.000 NA
ATOM     11  H   UNL     1      43.437   7.065  10.243  0.00  0.00    +0.000 HD
BRANCH  10  12
ATOM     12  C   UNL     1      44.006   5.412  11.346  0.00  0.00    +0.000 C 
ATOM     13  C   UNL     1      43.801   4.608  10.055  0.00  0.00    +0.000 C 
ATOM     14  C   UNL     1      44.076   3.133  10.301  0.00  0.00    +0.000 C 
ATOM     15  O   UNL     1      43.250   2.634  11.349  0.00  0.00    +0.000 OA
ATOM     16  C   UNL     1      43.503   3.292  12.590  0.00  0.00    +0.000 C 
ATOM     17  C   UNL     1      43.196   4.780  12.487  0.00  0.00    +0.000 C 
ENDBRANCH  10  12
ENDBRANCH   9  10
ENDBRANCH   8   9
ENDBRANCH   5   8
ENDBRANCH   1   2
BRANCH   1  19
ATOM     18  C   UNL     1      49.608   8.792  17.645  0.00  0.00    +0.000 C 
ATOM     19  N   UNL     1      49.480   7.389  17.259  0.00  0.00    +0.000 N 
ATOM     20  C   UNL     1      48.852   6.553  18.203  0.00  0.00    +0.000 C 
ATOM     21  O   UNL     1      48.449   7.004  19.274  0.00  0.00    +0.000 OA
BRANCH  20  22
ATOM     22  C   UNL     1      48.707   5.117  17.911  0.00  0.00    +0.000 A 
ATOM     23  C   UNL     1      47.526   4.508  17.520  0.00  0.00    +0.000 A 
ATOM     24  S   UNL     1      47.674   2.836  17.225  0.00  0.00    +0.000 S 
ATOM     25  C   UNL     1      49.355   2.902  17.446  0.00  0.00    +0.000 A 
ATOM     26  N   UNL     1      50.125   1.804  17.217  0.00  0.00    +0.000 NA
ATOM     27  C   UNL     1      51.387   2.009  17.373  0.00  0.00    +0.000 A 
ATOM     28  N   UNL     1      51.951   3.197  17.772  0.00  0.00    +0.000 N 
ATOM     29  C   UNL     1      51.199   4.293  18.134  0.00  0.00    +0.000 A 
ATOM     30  O   UNL     1      51.716   5.247  18.711  0.00  0.00    +0.000 OA
ATOM     31  C   UNL     1      49.778   4.156  17.854  0.00  0.00    +0.000 A 
ATOM     32  H   UNL     1      52.941   3.267  17.937  0.00  0.00    +0.000 HD
ENDBRANCH  20  22
ENDBRANCH   1  19
TORSDOF 7
ENDMDL
MODEL 8
REMARK VINA RESULT:    -6.330      2.540      4.370
REMARK INTER + INTRA:         -10.337
REMARK INTER:                  -8.994
REMARK INTRA:                  -1.343
REMARK UNBOUND:                -1.417
REMARK  Name = 
REMARK  8 active torsions:
REMARK  status: ('A' for Active; 'I' for Inactive)
REMARK    1  A    between atoms: C_1  and  N_2
REMARK    2  A    between atoms: N_2  and  C_3
REMARK    3  A    between atoms: C_3  and  C_4
REMARK    4  A    between atoms: C_7  and  C_8
REMARK    5  A    between atoms: C_8  and  C_9
REMARK    6  A    between atoms: C_9  and  N_10
REMARK    7  A    between atoms: N_10  and  C_11
REMARK    8  A    between atoms: C_19  and  C_21
REMARK                            x       y       z     vdW  Elec       q    Type
REMARK                         _______ _______ _______ _____ _____    ______ ____
ROOT
ATOM      1  C   UNL     1      48.875   7.033  13.919  0.00  0.00    +0.000 C 
ENDROOT
BRANCH   1   2
ATOM      2  C   UNL     1      47.510   6.575  13.511  0.00  0.00    +0.000 A 
ATOM      3  C   UNL     1      46.573   7.504  13.039  0.00  0.00    +0.000 A 
ATOM      4  C   UNL     1      45.282   7.093  12.733  0.00  0.00    +0.000 A 
ATOM      5  C   UNL     1      44.916   5.749  12.856  0.00  0.00    +0.000 A 
ATOM      6  C   UNL     1      45.872   4.817  13.290  0.00  0.00    +0.000 A 
ATOM      7  C   UNL     1      47.159   5.228  13.617  0.00  0.00    +0.000 A 
BRANCH   5   8
ATOM      8  C   UNL     1      43.501   5.278  12.620  0.00  0.00    +0.000 C 
BRANCH   8   9
ATOM      9  C   UNL     1      43.087   5.047  11.160  0.00  0.00    +0.000 C 
BRANCH   9  10
ATOM     10  N   UNL     1      44.174   5.305  10.211  0.00  0.00    +0.000 NA
ATOM     11  H   UNL     1      45.032   5.544  10.707  0.00  0.00    +0.000 HD
BRANCH  10  12
ATOM     12  C   UNL     1      44.395   4.194   9.278  0.00  0.00    +0.000 C 
ATOM     13  C   UNL     1      44.498   2.829   9.972  0.00  0.00    +0.000 C 
ATOM     14  C   UNL     1      44.858   1.748   8.965  0.00  0.00    +0.000 C 
ATOM     15  O   UNL     1      46.071   2.071   8.291  0.00  0.00    +0.000 OA
ATOM     16  C   UNL     1      45.963   3.282   7.544  0.00  0.00    +0.000 C 
ATOM     17  C   UNL     1      45.668   4.461   8.463  0.00  0.00    +0.000 C 
ENDBRANCH  10  12
ENDBRANCH   9  10
ENDBRANCH   8   9
ENDBRANCH   5   8
ENDBRANCH   1   2
BRANCH   1  19
ATOM     18  C   UNL     1      48.829   7.695  16.379  0.00  0.00    +0.000 C 
ATOM     19  N   UNL     1      48.968   8.052  14.969  0.00  0.00    +0.000 N 
ATOM     20  C   UNL     1      49.327   9.388  14.711  0.00  0.00    +0.000 C 
ATOM     21  O   UNL     1      49.507  10.181  15.635  0.00  0.00    +0.000 OA
BRANCH  20  22
ATOM     22  C   UNL     1      49.460   9.844  13.318  0.00  0.00    +0.000 A 
ATOM     23  C   UNL     1      48.487  10.543  12.622  0.00  0.00    +0.000 A 
ATOM     24  S   UNL     1      48.938  10.961  11.032  0.00  0.00    +0.000 S 
ATOM     25  C   UNL     1      50.511  10.371  11.277  0.00  0.00    +0.000 A 
ATOM     26  N   UNL     1      51.465  10.533  10.322  0.00  0.00    +0.000 NA
ATOM     27  C   UNL     1      52.624  10.084  10.660  0.00  0.00    +0.000 A 
ATOM     28  N   UNL     1      52.912   9.457  11.848  0.00  0.00    +0.000 N 
ATOM     29  C   UNL     1      51.948   9.162  12.787  0.00  0.00    +0.000 A 
ATOM     30  O   UNL     1      52.190   8.395  13.716  0.00  0.00    +0.000 OA
ATOM     31  C   UNL     1      50.650   9.759  12.512  0.00  0.00    +0.000 A 
ATOM     32  H   UNL     1      53.826   9.072  12.019  0.00  0.00    +0.000 HD
ENDBRANCH  20  22
ENDBRANCH   1  19
TORSDOF 7
ENDMDL
MODEL 9
REMARK VINA RESULT:    -6.221      4.053      5.702
REMARK INTER + INTRA:         -10.184
REMARK INTER:                  -8.656
REMARK INTRA:                  -1.529
REMARK UNBOUND:                -1.417
REMARK  Name = 
REMARK  8 active torsions:
REMARK  status: ('A' for Active; 'I' for Inactive)
REMARK    1  A    between atoms: C_1  and  N_2
REMARK    2  A    between atoms: N_2  and  C_3
REMARK    3  A    between atoms: C_3  and  C_4
REMARK    4  A    between atoms: C_7  and  C_8
REMARK    5  A    between atoms: C_8  and  C_9
REMARK    6  A    between atoms: C_9  and  N_10
REMARK    7  A    between atoms: N_10  and  C_11
REMARK    8  A    between atoms: C_19  and  C_21
REMARK                            x       y       z     vdW  Elec       q    Type
REMARK                         _______ _______ _______ _____ _____    ______ ____
ROOT
ATOM      1  C   UNL     1      48.098   8.892  11.833  0.00  0.00    +0.000 C 
ENDROOT
BRANCH   1   2
ATOM      2  C   UNL     1      47.089   7.804  12.029  0.00  0.00    +0.000 A 
ATOM      3  C   UNL     1      45.725   8.081  11.874  0.00  0.00    +0.000 A 
ATOM      4  C   UNL     1      44.782   7.093  12.130  0.00  0.00    +0.000 A 
ATOM      5  C   UNL     1      45.185   5.808  12.509  0.00  0.00    +0.000 A 
ATOM      6  C   UNL     1      46.555   5.527  12.622  0.00  0.00    +0.000 A 
ATOM      7  C   UNL     1      47.501   6.519  12.386  0.00  0.00    +0.000 A 
BRANCH   5   8
ATOM      8  C   UNL     1      44.191   4.735  12.882  0.00  0.00    +0.000 C 
BRANCH   8   9
ATOM      9  C   UNL     1      43.682   3.841  11.743  0.00  0.00    +0.000 C 
BRANCH   9  10
ATOM     10  N   UNL     1      43.633   4.533  10.452  0.00  0.00    +0.000 NA
ATOM     11  H   UNL     1      44.073   5.451  10.523  0.00  0.00    +0.000 HD
BRANCH  10  12
ATOM     12  C   UNL     1      44.221   3.748   9.360  0.00  0.00    +0.000 C 
ATOM     13  C   UNL     1      44.652   2.339   9.787  0.00  0.00    +0.000 C 
ATOM     14  C   UNL     1      45.369   1.635   8.646  0.00  0.00    +0.000 C 
ATOM     15  O   UNL     1      46.488   2.400   8.205  0.00  0.00    +0.000 OA
ATOM     16  C   UNL     1      46.098   3.675   7.697  0.00  0.00    +0.000 C 
ATOM     17  C   UNL     1      45.422   4.507   8.779  0.00  0.00    +0.000 C 
ENDBRANCH  10  12
ENDBRANCH   9  10
ENDBRANCH   8   9
ENDBRANCH   5   8
ENDBRANCH   1   2
BRANCH   1  19
ATOM     18  C   UNL     1      48.338   9.602  14.268  0.00  0.00    +0.000 C 
ATOM     19  N   UNL     1      48.181   9.939  12.855  0.00  0.00    +0.000 N 
ATOM     20  C   UNL     1      48.254  11.310  12.545  0.00  0.00    +0.000 C 
ATOM     21  O   UNL     1      48.440  12.146  13.428  0.00  0.00    +0.000 OA
BRANCH  20  22
ATOM     22  C   UNL     1      48.076  11.745  11.150  0.00  0.00    +0.000 A 
ATOM     23  C   UNL     1      49.109  11.945  10.249  0.00  0.00    +0.000 A 
ATOM     24  S   UNL     1      48.592  12.420   8.696  0.00  0.00    +0.000 S 
ATOM     25  C   UNL     1      46.963  12.211   9.128  0.00  0.00    +0.000 A 
ATOM     26  N   UNL     1      45.980  12.344   8.197  0.00  0.00    +0.000 NA
ATOM     27  C   UNL     1      44.797  12.106   8.649  0.00  0.00    +0.000 A 
ATOM     28  N   UNL     1      44.500  11.785   9.951  0.00  0.00    +0.000 N 
ATOM     29  C   UNL     1      45.450  11.764  10.949  0.00  0.00    +0.000 A 
ATOM     30  O   UNL     1      45.118  11.712  12.131  0.00  0.00    +0.000 OA
ATOM     31  C   UNL     1      46.817  11.897  10.469  0.00  0.00    +0.000 A 
ATOM     32  H   UNL     1      43.545  11.677  10.249  0.00  0.00    +0.000 HD
ENDBRANCH  20  22
ENDBRANCH   1  19
TORSDOF 7
ENDMDL
