MODEL 1
REMARK VINA RESULT:    -8.232      0.000      0.000
REMARK INTER + INTRA:         -12.523
REMARK INTER:                 -11.601
REMARK INTRA:                  -0.922
REMARK UNBOUND:                -0.922
REMARK  Name = 
REMARK  9 active torsions:
REMARK  status: ('A' for Active; 'I' for Inactive)
REMARK    1  A    between atoms: C_1  and  O_2
REMARK    2  A    between atoms: O_2  and  C_3
REMARK    3  A    between atoms: C_6  and  C_7
REMARK    4  A    between atoms: C_7  and  C_8
REMARK    5  A    between atoms: C_8  and  N_9
REMARK    6  A    between atoms: C_13  and  C_14
REMARK    7  A    between atoms: C_20  and  N_21
REMARK    8  A    between atoms: N_21  and  C_22
REMARK    9  A    between atoms: N_24  and  C_25
REMARK                            x       y       z     vdW  Elec       q    Type
REMARK                         _______ _______ _______ _____ _____    ______ ____
ROOT
ATOM      1  C   UNL     1      47.638   6.183  13.172  0.00  0.00    +0.000 A 
ATOM      2  C   UNL     1      47.051   7.044  12.233  0.00  0.00    +0.000 A 
ATOM      3  C   UNL     1      45.720   6.914  11.857  0.00  0.00    +0.000 A 
ATOM      4  C   UNL     1      44.922   5.896  12.382  0.00  0.00    +0.000 A 
ATOM      5  C   UNL     1      45.510   5.023  13.314  0.00  0.00    +0.000 A 
ATOM      6  C   UNL     1      46.857   5.156  13.749  0.00  0.00    +0.000 A 
ENDROOT
BRANCH   1   8
ATOM      7  C   UNL     1      49.409   7.565  13.945  0.00  0.00    +0.000 C 
ATOM      8  O   UNL     1      48.971   6.284  13.491  0.00  0.00    +0.000 OA
ENDBRANCH   1   8
BRANCH   6   9
ATOM      9  N   UNL     1      47.319   4.189  14.691  0.00  0.00    +0.000 N 
ATOM     10  H   UNL     1      47.140   3.242  14.365  0.00  0.00    +0.000 HD
BRANCH   9  11
ATOM     11  C   UNL     1      47.298   4.263  16.137  0.00  0.00    +0.000 C 
ATOM     12  C   UNL     1      48.467   5.114  16.705  0.00  0.00    +0.000 C 
ATOM     13  N   UNL     1      48.959   3.961  17.482  0.00  0.00    +0.000 NA
ATOM     14  C   UNL     1      48.668   4.139  18.905  0.00  0.00    +0.000 C 
ATOM     15  C   UNL     1      47.963   3.068  16.856  0.00  0.00    +0.000 C 
ENDBRANCH   9  11
ENDBRANCH   6   9
BRANCH   4  16
ATOM     16  C   UNL     1      43.467   5.714  11.966  0.00  0.00    +0.000 C 
BRANCH  16  17
ATOM     17  C   UNL     1      43.317   5.027  10.604  0.00  0.00    +0.000 C 
BRANCH  17  18
ATOM     18  N   UNL     1      43.610   3.590  10.606  0.00  0.00    +0.000 N 
ATOM     19  C   UNL     1      44.539   3.286   9.579  0.00  0.00    +0.000 A 
ATOM     20  C   UNL     1      44.962   1.975   9.406  0.00  0.00    +0.000 A 
ATOM     21  C   UNL     1      45.889   1.682   8.399  0.00  0.00    +0.000 A 
ATOM     22  C   UNL     1      46.375   2.703   7.576  0.00  0.00    +0.000 A 
ATOM     23  C   UNL     1      45.902   3.976   7.821  0.00  0.00    +0.000 A 
ATOM     24  N   UNL     1      45.012   4.279   8.793  0.00  0.00    +0.000 NA
ATOM     25  H   UNL     1      42.779   3.026  10.455  0.00  0.00    +0.000 HD
BRANCH  22  26
ATOM     26  C   UNL     1      47.344   2.393   6.496  0.00  0.00    +0.000 C 
ATOM     27  N   UNL     1      47.376   3.193   5.389  0.00  0.00    +0.000 N 
ATOM     28  O   UNL     1      48.115   1.452   6.600  0.00  0.00    +0.000 OA
ATOM     29  H   UNL     1      46.799   3.996   5.215  0.00  0.00    +0.000 HD
ATOM     30  H   UNL     1      48.059   2.957   4.675  0.00  0.00    +0.000 HD
ENDBRANCH  22  26
ENDBRANCH  17  18
ENDBRANCH  16  17
ENDBRANCH   4  16
TORSDOF 7
ENDMDL
MODEL 2
REMARK VINA RESULT:    -7.862      2.804      4.815
REMARK INTER + INTRA:         -12.001
REMARK INTER:                 -11.300
REMARK INTRA:                  -0.701
REMARK UNBOUND:                -0.922
REMARK  Name = 
REMARK  9 active torsions:
REMARK  status: ('A' for Active; 'I' for Inactive)
REMARK    1  A    between atoms: C_1  and  O_2
REMARK    2  A    between atoms: O_2  and  C_3
REMARK    3  A    between atoms: C_6  and  C_7
REMARK    4  A    between atoms: C_7  and  C_8
REMARK    5  A    between atoms: C_8  and  N_9
REMARK    6  A    between atoms: C_13  and  C_14
REMARK    7  A    between atoms: C_20  and  N_21
REMARK    8  A    between atoms: N_21  and  C_22
REMARK    9  A    between atoms: N_24  and  C_25
REMARK                            x       y       z     vdW  Elec       q    Type
REMARK                         _______ _______ _______ _____ _____    ______ ____
ROOT
ATOM      1  C   UNL     1      46.842   7.076  13.077  0.00  0.00    +0.000 A 
ATOM      2  C   UNL     1      47.076   5.695  13.150  0.00  0.00    +0.000 A 
ATOM      3  C   UNL     1      46.046   4.773  13.008  0.00  0.00    +0.000 A 
ATOM      4  C   UNL     1      44.729   5.191  12.814  0.00  0.00    +0.000 A 
ATOM      5  C   UNL     1      44.489   6.576  12.753  0.00  0.00    +0.000 A 
ATOM      6  C   UNL     1      45.526   7.542  12.855  0.00  0.00    +0.000 A 
ENDROOT
BRANCH   1   8
ATOM      7  C   UNL     1      48.284   8.145  14.633  0.00  0.00    +0.000 C 
ATOM      8  O   UNL     1      47.858   7.980  13.280  0.00  0.00    +0.000 OA
ENDBRANCH   1   8
BRANCH   6   9
ATOM      9  N   UNL     1      45.129   8.911  12.786  0.00  0.00    +0.000 N 
ATOM     10  H   UNL     1      44.423   9.125  13.486  0.00  0.00    +0.000 HD
BRANCH   9  11
ATOM     11  C   UNL     1      44.978   9.743  11.610  0.00  0.00    +0.000 C 
ATOM     12  C   UNL     1      45.696  11.112  11.755  0.00  0.00    +0.000 C 
ATOM     13  N   UNL     1      44.422  11.828  11.551  0.00  0.00    +0.000 NA
ATOM     14  C   UNL     1      44.385  12.442  10.223  0.00  0.00    +0.000 C 
ATOM     15  C   UNL     1      43.667  10.559  11.560  0.00  0.00    +0.000 C 
ENDBRANCH   9  11
ENDBRANCH   6   9
BRANCH   4  16
ATOM     16  C   UNL     1      43.578   4.202  12.683  0.00  0.00    +0.000 C 
BRANCH  16  17
ATOM     17  C   UNL     1      43.282   3.819  11.228  0.00  0.00    +0.000 C 
BRANCH  17  18
ATOM     18  N   UNL     1      43.929   4.672  10.226  0.00  0.00    +0.000 N 
ATOM     19  C   UNL     1      44.782   3.891   9.406  0.00  0.00    +0.000 A 
ATOM     20  C   UNL     1      45.494   4.502   8.382  0.00  0.00    +0.000 A 
ATOM     21  C   UNL     1      46.323   3.723   7.566  0.00  0.00    +0.000 A 
ATOM     22  C   UNL     1      46.433   2.347   7.790  0.00  0.00    +0.000 A 
ATOM     23  C   UNL     1      45.688   1.825   8.828  0.00  0.00    +0.000 A 
ATOM     24  N   UNL     1      44.876   2.559   9.621  0.00  0.00    +0.000 NA
ATOM     25  H   UNL     1      44.489   5.407  10.650  0.00  0.00    +0.000 HD
BRANCH  22  26
ATOM     26  C   UNL     1      47.326   1.522   6.939  0.00  0.00    +0.000 C 
ATOM     27  N   UNL     1      48.524   2.044   6.540  0.00  0.00    +0.000 N 
ATOM     28  O   UNL     1      47.009   0.388   6.616  0.00  0.00    +0.000 OA
ATOM     29  H   UNL     1      48.884   2.955   6.764  0.00  0.00    +0.000 HD
ATOM     30  H   UNL     1      49.114   1.447   5.968  0.00  0.00    +0.000 HD
ENDBRANCH  22  26
ENDBRANCH  17  18
ENDBRANCH  16  17
ENDBRANCH   4  16
TORSDOF 7
ENDMDL
MODEL 3
REMARK VINA RESULT:    -7.515      2.338      4.034
REMARK INTER + INTRA:         -11.512
REMARK INTER:                 -10.604
REMARK INTRA:                  -0.908
REMARK UNBOUND:                -0.922
REMARK  Name = 
REMARK  9 active torsions:
REMARK  status: ('A' for Active; 'I' for Inactive)
REMARK    1  A    between atoms: C_1  and  O_2
REMARK    2  A    between atoms: O_2  and  C_3
REMARK    3  A    between atoms: C_6  and  C_7
REMARK    4  A    between atoms: C_7  and  C_8
REMARK    5  A    between atoms: C_8  and  N_9
REMARK    6  A    between atoms: C_13  and  C_14
REMARK    7  A    between atoms: C_20  and  N_21
REMARK    8  A    between atoms: N_21  and  C_22
REMARK    9  A    between atoms: N_24  and  C_25
REMARK                            x       y       z     vdW  Elec       q    Type
REMARK                         _______ _______ _______ _____ _____    ______ ____
ROOT
ATOM      1  C   UNL     1      47.620   6.047  13.352  0.00  0.00    +0.000 A 
ATOM      2  C   UNL     1      46.763   5.063  13.865  0.00  0.00    +0.000 A 
ATOM      3  C   UNL     1      45.460   4.920  13.405  0.00  0.00    +0.000 A 
ATOM      4  C   UNL     1      44.944   5.777  12.431  0.00  0.00    +0.000 A 
ATOM      5  C   UNL     1      45.797   6.774  11.924  0.00  0.00    +0.000 A 
ATOM      6  C   UNL     1      47.147   6.918  12.345  0.00  0.00    +0.000 A 
ENDROOT
BRANCH   1   8
ATOM      7  C   UNL     1      48.973   6.901  15.109  0.00  0.00    +0.000 C 
ATOM      8  O   UNL     1      48.887   6.218  13.858  0.00  0.00    +0.000 OA
ENDBRANCH   1   8
BRANCH   6   9
ATOM      9  N   UNL     1      47.888   7.983  11.750  0.00  0.00    +0.000 N 
ATOM     10  H   UNL     1      48.641   7.626  11.167  0.00  0.00    +0.000 HD
BRANCH   9  11
ATOM     11  C   UNL     1      48.224   9.270  12.321  0.00  0.00    +0.000 C 
ATOM     12  C   UNL     1      47.387  10.428  11.711  0.00  0.00    +0.000 C 
ATOM     13  N   UNL     1      48.615  11.106  11.256  0.00  0.00    +0.000 NA
ATOM     14  C   UNL     1      48.891  12.280  12.086  0.00  0.00    +0.000 C 
ATOM     15  C   UNL     1      49.447   9.962  11.679  0.00  0.00    +0.000 C 
ENDBRANCH   9  11
ENDBRANCH   6   9
BRANCH   4  16
ATOM     16  C   UNL     1      43.510   5.660  11.929  0.00  0.00    +0.000 C 
BRANCH  16  17
ATOM     17  C   UNL     1      43.411   4.996  10.550  0.00  0.00    +0.000 C 
BRANCH  17  18
ATOM     18  N   UNL     1      43.704   3.560  10.540  0.00  0.00    +0.000 N 
ATOM     19  C   UNL     1      44.626   3.263   9.504  0.00  0.00    +0.000 A 
ATOM     20  C   UNL     1      45.047   1.952   9.319  0.00  0.00    +0.000 A 
ATOM     21  C   UNL     1      45.967   1.667   8.304  0.00  0.00    +0.000 A 
ATOM     22  C   UNL     1      46.448   2.694   7.486  0.00  0.00    +0.000 A 
ATOM     23  C   UNL     1      45.978   3.965   7.743  0.00  0.00    +0.000 A 
ATOM     24  N   UNL     1      45.095   4.262   8.723  0.00  0.00    +0.000 NA
ATOM     25  H   UNL     1      42.871   2.998  10.390  0.00  0.00    +0.000 HD
BRANCH  22  26
ATOM     26  C   UNL     1      47.410   2.391   6.397  0.00  0.00    +0.000 C 
ATOM     27  N   UNL     1      47.433   3.198   5.294  0.00  0.00    +0.000 N 
ATOM     28  O   UNL     1      48.183   1.450   6.490  0.00  0.00    +0.000 OA
ATOM     29  H   UNL     1      46.854   4.002   5.129  0.00  0.00    +0.000 HD
ATOM     30  H   UNL     1      48.112   2.967   4.574  0.00  0.00    +0.000 HD
ENDBRANCH  22  26
ENDBRANCH  17  18
ENDBRANCH  16  17
ENDBRANCH   4  16
TORSDOF 7
ENDMDL
MODEL 4
REMARK VINA RESULT:    -6.974      3.729      6.232
REMARK INTER + INTRA:         -10.749
REMARK INTER:                 -10.152
REMARK INTRA:                  -0.597
REMARK UNBOUND:                -0.922
REMARK  Name = 
REMARK  9 active torsions:
REMARK  status: ('A' for Active; 'I' for Inactive)
REMARK    1  A    between atoms: C_1  and  O_2
REMARK    2  A    between atoms: O_2  and  C_3
REMARK    3  A    between atoms: C_6  and  C_7
REMARK    4  A    between atoms: C_7  and  C_8
REMARK    5  A    between atoms: C_8  and  N_9
REMARK    6  A    between atoms: C_13  and  C_14
REMARK    7  A    between atoms: C_20  and  N_21
REMARK    8  A    between atoms: N_21  and  C_22
REMARK    9  A    between atoms: N_24  and  C_25
REMARK                            x       y       z     vdW  Elec       q    Type
REMARK                         _______ _______ _______ _____ _____    ______ ____
ROOT
ATOM      1  C   UNL     1      45.183   9.862  11.810  0.00  0.00    +0.000 A 
ATOM      2  C   UNL     1      45.996   9.027  12.591  0.00  0.00    +0.000 A 
ATOM      3  C   UNL     1      45.790   7.653  12.644  0.00  0.00    +0.000 A 
ATOM      4  C   UNL     1      44.742   7.057  11.941  0.00  0.00    +0.000 A 
ATOM      5  C   UNL     1      43.918   7.893  11.168  0.00  0.00    +0.000 A 
ATOM      6  C   UNL     1      44.128   9.295  11.061  0.00  0.00    +0.000 A 
ENDROOT
BRANCH   1   8
ATOM      7  C   UNL     1      46.551  11.702  11.186  0.00  0.00    +0.000 C 
ATOM      8  O   UNL     1      45.359  11.226  11.813  0.00  0.00    +0.000 OA
ENDBRANCH   1   8
BRANCH   6   9
ATOM      9  N   UNL     1      43.204  10.016  10.247  0.00  0.00    +0.000 N 
ATOM     10  H   UNL     1      43.633  10.309   9.373  0.00  0.00    +0.000 HD
BRANCH   9  11
ATOM     11  C   UNL     1      42.173  10.942  10.667  0.00  0.00    +0.000 C 
ATOM     12  C   UNL     1      40.853  10.224  11.062  0.00  0.00    +0.000 C 
ATOM     13  N   UNL     1      40.110  10.972  10.031  0.00  0.00    +0.000 NA
ATOM     14  C   UNL     1      39.266  11.996  10.649  0.00  0.00    +0.000 C 
ATOM     15  C   UNL     1      41.358  11.569   9.514  0.00  0.00    +0.000 C 
ENDBRANCH   9  11
ENDBRANCH   6   9
BRANCH   4  16
ATOM     16  C   UNL     1      44.477   5.558  12.005  0.00  0.00    +0.000 C 
BRANCH  16  17
ATOM     17  C   UNL     1      43.748   5.026  10.765  0.00  0.00    +0.000 C 
BRANCH  17  18
ATOM     18  N   UNL     1      43.822   3.573  10.587  0.00  0.00    +0.000 N 
ATOM     19  C   UNL     1      44.725   3.261   9.539  0.00  0.00    +0.000 A 
ATOM     20  C   UNL     1      44.952   1.932   9.205  0.00  0.00    +0.000 A 
ATOM     21  C   UNL     1      45.855   1.630   8.179  0.00  0.00    +0.000 A 
ATOM     22  C   UNL     1      46.514   2.660   7.499  0.00  0.00    +0.000 A 
ATOM     23  C   UNL     1      46.230   3.949   7.900  0.00  0.00    +0.000 A 
ATOM     24  N   UNL     1      45.366   4.261   8.893  0.00  0.00    +0.000 NA
ATOM     25  H   UNL     1      42.920   3.166  10.355  0.00  0.00    +0.000 HD
BRANCH  22  26
ATOM     26  C   UNL     1      47.457   2.342   6.399  0.00  0.00    +0.000 C 
ATOM     27  N   UNL     1      47.404   3.080   5.251  0.00  0.00    +0.000 N 
ATOM     28  O   UNL     1      48.283   1.451   6.522  0.00  0.00    +0.000 OA
ATOM     29  H   UNL     1      46.776   3.840   5.057  0.00  0.00    +0.000 HD
ATOM     30  H   UNL     1      48.072   2.842   4.523  0.00  0.00    +0.000 HD
ENDBRANCH  22  26
ENDBRANCH  17  18
ENDBRANCH  16  17
ENDBRANCH   4  16
TORSDOF 7
ENDMDL
MODEL 5
REMARK VINA RESULT:    -6.932      1.765      2.296
REMARK INTER + INTRA:         -10.690
REMARK INTER:                  -9.990
REMARK INTRA:                  -0.701
REMARK UNBOUND:                -0.922
REMARK  Name = 
REMARK  9 active torsions:
REMARK  status: ('A' for Active; 'I' for Inactive)
REMARK    1  A    between atoms: C_1  and  O_2
REMARK    2  A    between atoms: O_2  and  C_3
REMARK    3  A    between atoms: C_6  and  C_7
REMARK    4  A    between atoms: C_7  and  C_8
REMARK    5  A    between atoms: C_8  and  N_9
REMARK    6  A    between atoms: C_13  and  C_14
REMARK    7  A    between atoms: C_20  and  N_21
REMARK    8  A    between atoms: N_21  and  C_22
REMARK    9  A    between atoms: N_24  and  C_25
REMARK                            x       y       z     vdW  Elec       q    Type
REMARK                         _______ _______ _______ _____ _____    ______ ____
ROOT
ATOM      1  C   UNL     1      46.495   8.713  12.198  0.00  0.00    +0.000 A 
ATOM      2  C   UNL     1      45.219   8.761  11.618  0.00  0.00    +0.000 A 
ATOM      3  C   UNL     1      44.369   7.661  11.635  0.00  0.00    +0.000 A 
ATOM      4  C   UNL     1      44.770   6.453  12.207  0.00  0.00    +0.000 A 
ATOM      5  C   UNL     1      46.055   6.398  12.777  0.00  0.00    +0.000 A 
ATOM      6  C   UNL     1      46.929   7.517  12.812  0.00  0.00    +0.000 A 
ENDROOT
BRANCH   1   8
ATOM      7  C   UNL     1      46.740  11.050  11.843  0.00  0.00    +0.000 C 
ATOM      8  O   UNL     1      47.349   9.788  12.122  0.00  0.00    +0.000 OA
ENDBRANCH   1   8
BRANCH   6   9
ATOM      9  N   UNL     1      48.206   7.307  13.414  0.00  0.00    +0.000 N 
ATOM     10  H   UNL     1      48.685   6.514  12.995  0.00  0.00    +0.000 HD
BRANCH   9  11
ATOM     11  C   UNL     1      48.582   7.480  14.802  0.00  0.00    +0.000 C 
ATOM     12  C   UNL     1      50.118   7.396  15.016  0.00  0.00    +0.000 C 
ATOM     13  N   UNL     1      49.950   6.261  15.944  0.00  0.00    +0.000 NA
ATOM     14  C   UNL     1      50.185   6.687  17.324  0.00  0.00    +0.000 C 
ATOM     15  C   UNL     1      48.502   6.197  15.658  0.00  0.00    +0.000 C 
ENDBRANCH   9  11
ENDBRANCH   6   9
BRANCH   4  16
ATOM     16  C   UNL     1      43.870   5.224  12.214  0.00  0.00    +0.000 C 
BRANCH  16  17
ATOM     17  C   UNL     1      43.509   4.739  10.804  0.00  0.00    +0.000 C 
BRANCH  17  18
ATOM     18  N   UNL     1      43.688   3.300  10.587  0.00  0.00    +0.000 N 
ATOM     19  C   UNL     1      44.648   3.083   9.567  0.00  0.00    +0.000 A 
ATOM     20  C   UNL     1      44.976   1.783   9.203  0.00  0.00    +0.000 A 
ATOM     21  C   UNL     1      45.935   1.573   8.205  0.00  0.00    +0.000 A 
ATOM     22  C   UNL     1      46.547   2.666   7.582  0.00  0.00    +0.000 A 
ATOM     23  C   UNL     1      46.162   3.920   8.008  0.00  0.00    +0.000 A 
ATOM     24  N   UNL     1      45.244   4.142   8.975  0.00  0.00    +0.000 NA
ATOM     25  H   UNL     1      42.824   2.842  10.308  0.00  0.00    +0.000 HD
BRANCH  22  26
ATOM     26  C   UNL     1      47.550   2.446   6.511  0.00  0.00    +0.000 C 
ATOM     27  N   UNL     1      47.462   3.182   5.364  0.00  0.00    +0.000 N 
ATOM     28  O   UNL     1      48.454   1.638   6.657  0.00  0.00    +0.000 OA
ATOM     29  H   UNL     1      46.771   3.880   5.153  0.00  0.00    +0.000 HD
ATOM     30  H   UNL     1      48.172   3.014   4.657  0.00  0.00    +0.000 HD
ENDBRANCH  22  26
ENDBRANCH  17  18
ENDBRANCH  16  17
ENDBRANCH   4  16
TORSDOF 7
ENDMDL
MODEL 6
REMARK VINA RESULT:    -6.918      2.480      8.490
REMARK INTER + INTRA:         -10.671
REMARK INTER:                  -9.822
REMARK INTRA:                  -0.848
REMARK UNBOUND:                -0.922
REMARK  Name = 
REMARK  9 active torsions:
REMARK  status: ('A' for Active; 'I' for Inactive)
REMARK    1  A    between atoms: C_1  and  O_2
REMARK    2  A    between atoms: O_2  and  C_3
REMARK    3  A    between atoms: C_6  and  C_7
REMARK    4  A    between atoms: C_7  and  C_8
REMARK    5  A    between atoms: C_8  and  N_9
REMARK    6  A    between atoms: C_13  and  C_14
REMARK    7  A    between atoms: C_20  and  N_21
REMARK    8  A    between atoms: N_21  and  C_22
REMARK    9  A    between atoms: N_24  and  C_25
REMARK                            x       y       z     vdW  Elec       q    Type
REMARK                         _______ _______ _______ _____ _____    ______ ____
ROOT
ATOM      1  C   UNL     1      44.030   4.544  11.453  0.00  0.00    +0.000 A 
ATOM      2  C   UNL     1      44.499   4.972  12.704  0.00  0.00    +0.000 A 
ATOM      3  C   UNL     1      45.606   5.804  12.821  0.00  0.00    +0.000 A 
ATOM      4  C   UNL     1      46.313   6.222  11.692  0.00  0.00    +0.000 A 
ATOM      5  C   UNL     1      45.853   5.784  10.438  0.00  0.00    +0.000 A 
ATOM      6  C   UNL     1      44.701   4.967  10.283  0.00  0.00    +0.000 A 
ENDROOT
BRANCH   1   8
ATOM      7  C   UNL     1      43.229   2.329  11.766  0.00  0.00    +0.000 C 
ATOM      8  O   UNL     1      42.972   3.672  11.353  0.00  0.00    +0.000 OA
ENDBRANCH   1   8
BRANCH   6   9
ATOM      9  N   UNL     1      44.362   4.592   8.949  0.00  0.00    +0.000 N 
ATOM     10  H   UNL     1      43.432   4.920   8.699  0.00  0.00    +0.000 HD
BRANCH   9  11
ATOM     11  C   UNL     1      44.698   3.371   8.247  0.00  0.00    +0.000 C 
ATOM     12  C   UNL     1      45.585   2.421   9.098  0.00  0.00    +0.000 C 
ATOM     13  N   UNL     1      46.648   2.461   8.077  0.00  0.00    +0.000 NA
ATOM     14  C   UNL     1      46.701   1.196   7.341  0.00  0.00    +0.000 C 
ATOM     15  C   UNL     1      45.916   3.483   7.303  0.00  0.00    +0.000 C 
ENDBRANCH   9  11
ENDBRANCH   6   9
BRANCH   4  16
ATOM     16  C   UNL     1      47.546   7.111  11.795  0.00  0.00    +0.000 C 
BRANCH  16  17
ATOM     17  C   UNL     1      48.559   6.612  12.832  0.00  0.00    +0.000 C 
BRANCH  17  18
ATOM     18  N   UNL     1      48.841   7.558  13.917  0.00  0.00    +0.000 N 
ATOM     19  C   UNL     1      48.653   6.924  15.171  0.00  0.00    +0.000 A 
ATOM     20  C   UNL     1      48.874   7.641  16.340  0.00  0.00    +0.000 A 
ATOM     21  C   UNL     1      48.701   7.006  17.575  0.00  0.00    +0.000 A 
ATOM     22  C   UNL     1      48.305   5.666  17.624  0.00  0.00    +0.000 A 
ATOM     23  C   UNL     1      48.111   5.030  16.414  0.00  0.00    +0.000 A 
ATOM     24  N   UNL     1      48.280   5.625  15.211  0.00  0.00    +0.000 NA
ATOM     25  H   UNL     1      48.235   8.374  13.884  0.00  0.00    +0.000 HD
BRANCH  22  26
ATOM     26  C   UNL     1      48.102   4.995  18.932  0.00  0.00    +0.000 C 
ATOM     27  N   UNL     1      47.248   5.558  19.837  0.00  0.00    +0.000 N 
ATOM     28  O   UNL     1      48.673   3.947  19.191  0.00  0.00    +0.000 OA
ATOM     29  H   UNL     1      46.721   6.404  19.714  0.00  0.00    +0.000 HD
ATOM     30  H   UNL     1      47.125   5.066  20.717  0.00  0.00    +0.000 HD
ENDBRANCH  22  26
ENDBRANCH  17  18
ENDBRANCH  16  17
ENDBRANCH   4  16
TORSDOF 7
ENDMDL
MODEL 7
REMARK VINA RESULT:    -6.568      1.682      2.909
REMARK INTER + INTRA:         -10.177
REMARK INTER:                 -10.636
REMARK INTRA:                   0.459
REMARK UNBOUND:                -0.922
REMARK  Name = 
REMARK  9 active torsions:
REMARK  status: ('A' for Active; 'I' for Inactive)
REMARK    1  A    between atoms: C_1  and  O_2
REMARK    2  A    between atoms: O_2  and  C_3
REMARK    3  A    between atoms: C_6  and  C_7
REMARK    4  A    between atoms: C_7  and  C_8
REMARK    5  A    between atoms: C_8  and  N_9
REMARK    6  A    between atoms: C_13  and  C_14
REMARK    7  A    between atoms: C_20  and  N_21
REMARK    8  A    between atoms: N_21  and  C_22
REMARK    9  A    between atoms: N_24  and  C_25
REMARK                            x       y       z     vdW  Elec       q    Type
REMARK                         _______ _______ _______ _____ _____    ______ ____
ROOT
ATOM      1  C   UNL     1      47.344   5.291  14.270  0.00  0.00    +0.000 A 
ATOM      2  C   UNL     1      46.132   4.632  14.017  0.00  0.00    +0.000 A 
ATOM      3  C   UNL     1      45.437   4.817  12.827  0.00  0.00    +0.000 A 
ATOM      4  C   UNL     1      45.909   5.693  11.849  0.00  0.00    +0.000 A 
ATOM      5  C   UNL     1      47.117   6.366  12.106  0.00  0.00    +0.000 A 
ATOM      6  C   UNL     1      47.871   6.167  13.294  0.00  0.00    +0.000 A 
ENDROOT
BRANCH   1   8
ATOM      7  C   UNL     1      47.617   4.009  16.251  0.00  0.00    +0.000 C 
ATOM      8  O   UNL     1      47.991   5.147  15.475  0.00  0.00    +0.000 OA
ENDBRANCH   1   8
BRANCH   6   9
ATOM      9  N   UNL     1      49.072   6.928  13.420  0.00  0.00    +0.000 N 
ATOM     10  H   UNL     1      49.870   6.327  13.607  0.00  0.00    +0.000 HD
BRANCH   9  11
ATOM     11  C   UNL     1      49.245   8.238  14.010  0.00  0.00    +0.000 C 
ATOM     12  C   UNL     1      49.753   8.167  15.477  0.00  0.00    +0.000 C 
ATOM     13  N   UNL     1      48.561   8.895  15.949  0.00  0.00    +0.000 NA
ATOM     14  C   UNL     1      48.910  10.268  16.319  0.00  0.00    +0.000 C 
ATOM     15  C   UNL     1      47.959   8.857  14.602  0.00  0.00    +0.000 C 
ENDBRANCH   9  11
ENDBRANCH   6   9
BRANCH   4  16
ATOM     16  C   UNL     1      45.153   5.935  10.548  0.00  0.00    +0.000 C 
BRANCH  16  17
ATOM     17  C   UNL     1      43.868   5.104  10.440  0.00  0.00    +0.000 C 
BRANCH  17  18
ATOM     18  N   UNL     1      44.079   3.654  10.403  0.00  0.00    +0.000 N 
ATOM     19  C   UNL     1      44.958   3.322   9.341  0.00  0.00    +0.000 A 
ATOM     20  C   UNL     1      45.300   1.993   9.127  0.00  0.00    +0.000 A 
ATOM     21  C   UNL     1      46.179   1.672   8.086  0.00  0.00    +0.000 A 
ATOM     22  C   UNL     1      46.699   2.683   7.271  0.00  0.00    +0.000 A 
ATOM     23  C   UNL     1      46.307   3.975   7.558  0.00  0.00    +0.000 A 
ATOM     24  N   UNL     1      45.465   4.305   8.563  0.00  0.00    +0.000 NA
ATOM     25  H   UNL     1      43.212   3.142  10.264  0.00  0.00    +0.000 HD
BRANCH  22  26
ATOM     26  C   UNL     1      47.616   2.344   6.156  0.00  0.00    +0.000 C 
ATOM     27  N   UNL     1      47.668   3.170   5.069  0.00  0.00    +0.000 N 
ATOM     28  O   UNL     1      48.330   1.354   6.213  0.00  0.00    +0.000 OA
ATOM     29  H   UNL     1      47.137   4.012   4.933  0.00  0.00    +0.000 HD
ATOM     30  H   UNL     1      48.315   2.913   4.330  0.00  0.00    +0.000 HD
ENDBRANCH  22  26
ENDBRANCH  17  18
ENDBRANCH  16  17
ENDBRANCH   4  16
TORSDOF 7
ENDMDL
MODEL 8
REMARK VINA RESULT:    -6.474      3.944      7.679
REMARK INTER + INTRA:         -10.045
REMARK INTER:                  -9.061
REMARK INTRA:                  -0.984
REMARK UNBOUND:                -0.922
REMARK  Name = 
REMARK  9 active torsions:
REMARK  status: ('A' for Active; 'I' for Inactive)
REMARK    1  A    between atoms: C_1  and  O_2
REMARK    2  A    between atoms: O_2  and  C_3
REMARK    3  A    between atoms: C_6  and  C_7
REMARK    4  A    between atoms: C_7  and  C_8
REMARK    5  A    between atoms: C_8  and  N_9
REMARK    6  A    between atoms: C_13  and  C_14
REMARK    7  A    between atoms: C_20  and  N_21
REMARK    8  A    between atoms: N_21  and  C_22
REMARK    9  A    between atoms: N_24  and  C_25
REMARK                            x       y       z     vdW  Elec       q    Type
REMARK                         _______ _______ _______ _____ _____    ______ ____
ROOT
ATOM      1  C   UNL     1      45.223  10.025  12.044  0.00  0.00    +0.000 A 
ATOM      2  C   UNL     1      46.228  10.957  11.747  0.00  0.00    +0.000 A 
ATOM      3  C   UNL     1      47.567  10.591  11.687  0.00  0.00    +0.000 A 
ATOM      4  C   UNL     1      47.965   9.279  11.949  0.00  0.00    +0.000 A 
ATOM      5  C   UNL     1      46.961   8.344  12.259  0.00  0.00    +0.000 A 
ATOM      6  C   UNL     1      45.580   8.679  12.289  0.00  0.00    +0.000 A 
ENDROOT
BRANCH   1   8
ATOM      7  C   UNL     1      43.180  10.521  10.937  0.00  0.00    +0.000 C 
ATOM      8  O   UNL     1      43.909  10.412  12.160  0.00  0.00    +0.000 OA
ENDBRANCH   1   8
BRANCH   6   9
ATOM      9  N   UNL     1      44.678   7.628  12.630  0.00  0.00    +0.000 N 
ATOM     10  H   UNL     1      44.489   7.615  13.629  0.00  0.00    +0.000 HD
BRANCH   9  11
ATOM     11  C   UNL     1      44.588   6.302  12.056  0.00  0.00    +0.000 C 
ATOM     12  C   UNL     1      43.173   5.991  11.496  0.00  0.00    +0.000 C 
ATOM     13  N   UNL     1      43.044   4.834  12.402  0.00  0.00    +0.000 NA
ATOM     14  C   UNL     1      43.175   3.581  11.657  0.00  0.00    +0.000 C 
ATOM     15  C   UNL     1      44.313   5.174  13.076  0.00  0.00    +0.000 C 
ENDBRANCH   9  11
ENDBRANCH   6   9
BRANCH   4  16
ATOM     16  C   UNL     1      49.428   8.857  11.917  0.00  0.00    +0.000 C 
BRANCH  16  17
ATOM     17  C   UNL     1      49.676   7.503  12.594  0.00  0.00    +0.000 C 
BRANCH  17  18
ATOM     18  N   UNL     1      50.233   7.589  13.947  0.00  0.00    +0.000 N 
ATOM     19  C   UNL     1      49.478   6.777  14.831  0.00  0.00    +0.000 A 
ATOM     20  C   UNL     1      49.839   6.706  16.171  0.00  0.00    +0.000 A 
ATOM     21  C   UNL     1      49.100   5.892  17.037  0.00  0.00    +0.000 A 
ATOM     22  C   UNL     1      48.007   5.166  16.552  0.00  0.00    +0.000 A 
ATOM     23  C   UNL     1      47.722   5.294  15.208  0.00  0.00    +0.000 A 
ATOM     24  N   UNL     1      48.429   6.069  14.355  0.00  0.00    +0.000 NA
ATOM     25  H   UNL     1      50.224   8.539  14.309  0.00  0.00    +0.000 HD
BRANCH  22  26
ATOM     26  C   UNL     1      47.209   4.317  17.472  0.00  0.00    +0.000 C 
ATOM     27  N   UNL     1      47.213   4.606  18.806  0.00  0.00    +0.000 N 
ATOM     28  O   UNL     1      46.543   3.387  17.043  0.00  0.00    +0.000 OA
ATOM     29  H   UNL     1      47.711   5.354  19.254  0.00  0.00    +0.000 HD
ATOM     30  H   UNL     1      46.647   4.011  19.404  0.00  0.00    +0.000 HD
ENDBRANCH  22  26
ENDBRANCH  17  18
ENDBRANCH  16  17
ENDBRANCH   4  16
TORSDOF 7
ENDMDL
MODEL 9
REMARK VINA RESULT:    -6.016      3.947      7.705
REMARK INTER + INTRA:          -9.399
REMARK INTER:                  -8.202
REMARK INTRA:                  -1.197
REMARK UNBOUND:                -0.922
REMARK  Name = 
REMARK  9 active torsions:
REMARK  status: ('A' for Active; 'I' for Inactive)
REMARK    1  A    between atoms: C_1  and  O_2
REMARK    2  A    between atoms: O_2  and  C_3
REMARK    3  A    between atoms: C_6  and  C_7
REMARK    4  A    between atoms: C_7  and  C_8
REMARK    5  A    between atoms: C_8  and  N_9
REMARK    6  A    between atoms: C_13  and  C_14
REMARK    7  A    between atoms: C_20  and  N_21
REMARK    8  A    between atoms: N_21  and  C_22
REMARK    9  A    between atoms: N_24  and  C_25
REMARK                            x       y       z     vdW  Elec       q    Type
REMARK                         _______ _______ _______ _____ _____    ______ ____
ROOT
ATOM      1  C   UNL     1      45.239   4.748  12.934  0.00  0.00    +0.000 A 
ATOM      2  C   UNL     1      45.223   5.482  11.739  0.00  0.00    +0.000 A 
ATOM      3  C   UNL     1      46.272   6.322  11.385  0.00  0.00    +0.000 A 
ATOM      4  C   UNL     1      47.374   6.488  12.227  0.00  0.00    +0.000 A 
ATOM      5  C   UNL     1      47.387   5.763  13.432  0.00  0.00    +0.000 A 
ATOM      6  C   UNL     1      46.349   4.867  13.802  0.00  0.00    +0.000 A 
ENDROOT
BRANCH   1   8
ATOM      7  C   UNL     1      43.657   3.096  12.293  0.00  0.00    +0.000 C 
ATOM      8  O   UNL     1      44.169   3.968  13.302  0.00  0.00    +0.000 OA
ENDBRANCH   1   8
BRANCH   6   9
ATOM      9  N   UNL     1      46.494   4.209  15.060  0.00  0.00    +0.000 N 
ATOM     10  H   UNL     1      45.595   4.094  15.521  0.00  0.00    +0.000 HD
BRANCH   9  11
ATOM     11  C   UNL     1      47.569   4.340  16.021  0.00  0.00    +0.000 C 
ATOM     12  C   UNL     1      48.128   2.965  16.479  0.00  0.00    +0.000 C 
ATOM     13  N   UNL     1      47.792   3.270  17.882  0.00  0.00    +0.000 NA
ATOM     14  C   UNL     1      49.004   3.565  18.648  0.00  0.00    +0.000 C 
ATOM     15  C   UNL     1      47.110   4.518  17.485  0.00  0.00    +0.000 C 
ENDBRANCH   9  11
ENDBRANCH   6   9
BRANCH   4  16
ATOM     16  C   UNL     1      48.525   7.423  11.876  0.00  0.00    +0.000 C 
BRANCH  16  17
ATOM     17  C   UNL     1      49.069   8.183  13.092  0.00  0.00    +0.000 C 
BRANCH  17  18
ATOM     18  N   UNL     1      50.266   7.591  13.698  0.00  0.00    +0.000 N 
ATOM     19  C   UNL     1      50.091   7.480  15.101  0.00  0.00    +0.000 A 
ATOM     20  C   UNL     1      51.107   6.936  15.875  0.00  0.00    +0.000 A 
ATOM     21  C   UNL     1      50.924   6.817  17.258  0.00  0.00    +0.000 A 
ATOM     22  C   UNL     1      49.731   7.248  17.846  0.00  0.00    +0.000 A 
ATOM     23  C   UNL     1      48.775   7.773  17.000  0.00  0.00    +0.000 A 
ATOM     24  N   UNL     1      48.931   7.889  15.662  0.00  0.00    +0.000 NA
ATOM     25  H   UNL     1      51.099   8.147  13.528  0.00  0.00    +0.000 HD
BRANCH  22  26
ATOM     26  C   UNL     1      49.541   7.140  19.314  0.00  0.00    +0.000 C 
ATOM     27  N   UNL     1      50.595   6.743  20.087  0.00  0.00    +0.000 N 
ATOM     28  O   UNL     1      48.469   7.419  19.827  0.00  0.00    +0.000 OA
ATOM     29  H   UNL     1      51.517   6.508  19.766  0.00  0.00    +0.000 HD
ATOM     30  H   UNL     1      50.432   6.692  21.089  0.00  0.00    +0.000 HD
ENDBRANCH  22  26
ENDBRANCH  17  18
ENDBRANCH  16  17
ENDBRANCH   4  16
TORSDOF 7
ENDMDL
