MODEL 1
REMARK VINA RESULT:    -8.818      0.000      0.000
REMARK INTER + INTRA:         -12.204
REMARK INTER:                 -11.395
REMARK INTRA:                  -0.809
REMARK UNBOUND:                -0.809
REMARK  Name = 
REMARK  6 active torsions:
REMARK  status: ('A' for Active; 'I' for Inactive)
REMARK    1  A    between atoms: C_1  and  C_2
REMARK    2  A    between atoms: C_2  and  N_3
REMARK    3  A    between atoms: C_2  and  C_16
REMARK    4  A    between atoms: C_4  and  C_6
REMARK    5  A    between atoms: C_19  and  O_20
REMARK    6  A    between atoms: O_20  and  C_21
REMARK                            x       y       z     vdW  Elec       q    Type
REMARK                         _______ _______ _______ _____ _____    ______ ____
ROOT
ATOM      1  C   UNL     1      45.580   8.662  12.908  0.00  0.00    +0.000 C 
ATOM      2  C   UNL     1      46.593   7.527  12.738  0.00  0.00    +0.000 C 
ENDROOT
BRANCH   2   3
ATOM      3  C   UNL     1      46.015   6.469  11.808  0.00  0.00    +0.000 A 
ATOM      4  C   UNL     1      45.241   5.442  12.374  0.00  0.00    +0.000 A 
ATOM      5  C   UNL     1      44.752   4.396  11.590  0.00  0.00    +0.000 A 
ATOM      6  C   UNL     1      44.963   4.393  10.211  0.00  0.00    +0.000 A 
ATOM      7  C   UNL     1      45.751   5.390   9.641  0.00  0.00    +0.000 A 
ATOM      8  C   UNL     1      46.288   6.413  10.434  0.00  0.00    +0.000 A 
BRANCH   6   9
ATOM      9  O   UNL     1      44.502   3.420   9.353  0.00  0.00    +0.000 OA
BRANCH   9  10
ATOM     10  C   UNL     1      45.347   2.873   8.414  0.00  0.00    +0.000 A 
ATOM     11  C   UNL     1      45.842   3.563   7.304  0.00  0.00    +0.000 A 
ATOM     12  C   UNL     1      46.673   2.915   6.388  0.00  0.00    +0.000 A 
ATOM     13  C   UNL     1      47.063   1.596   6.615  0.00  0.00    +0.000 A 
ATOM     14  C   UNL     1      46.627   0.926   7.757  0.00  0.00    +0.000 A 
ATOM     15  C   UNL     1      45.768   1.564   8.655  0.00  0.00    +0.000 A 
ENDBRANCH   9  10
ENDBRANCH   6   9
ENDBRANCH   2   3
BRANCH   2  16
ATOM     16  N   UNL     1      47.015   7.000  14.022  0.00  0.00    +0.000 N 
ATOM     17  C   UNL     1      48.313   6.630  14.265  0.00  0.00    +0.000 C 
ATOM     18  O   UNL     1      49.175   6.667  13.390  0.00  0.00    +0.000 OA
ATOM     19  H   UNL     1      46.319   6.883  14.749  0.00  0.00    +0.000 HD
BRANCH  17  20
ATOM     20  C   UNL     1      48.646   6.235  15.639  0.00  0.00    +0.000 A 
ATOM     21  C   UNL     1      49.515   7.024  16.382  0.00  0.00    +0.000 A 
ATOM     22  S   UNL     1      49.790   6.447  17.961  0.00  0.00    +0.000 S 
ATOM     23  C   UNL     1      48.794   5.096  17.697  0.00  0.00    +0.000 A 
ATOM     24  N   UNL     1      48.622   4.157  18.666  0.00  0.00    +0.000 NA
ATOM     25  C   UNL     1      47.876   3.164  18.321  0.00  0.00    +0.000 A 
ATOM     26  N   UNL     1      47.271   3.028  17.100  0.00  0.00    +0.000 N 
ATOM     27  C   UNL     1      47.356   3.986  16.120  0.00  0.00    +0.000 A 
ATOM     28  O   UNL     1      46.693   3.899  15.088  0.00  0.00    +0.000 OA
ATOM     29  C   UNL     1      48.231   5.100  16.433  0.00  0.00    +0.000 A 
ATOM     30  H   UNL     1      46.673   2.239  16.903  0.00  0.00    +0.000 HD
ENDBRANCH  17  20
ENDBRANCH   2  16
TORSDOF 5
ENDMDL
MODEL 2
REMARK VINA RESULT:    -7.932      2.765      3.922
REMARK INTER + INTRA:         -11.059
REMARK INTER:                  -9.931
REMARK INTRA:                  -1.129
REMARK UNBOUND:                -0.809
REMARK  Name = 
REMARK  6 active torsions:
REMARK  status: ('A' for Active; 'I' for Inactive)
REMARK    1  A    between atoms: C_1  and  C_2
REMARK    2  A    between atoms: C_2  and  N_3
REMARK    3  A    between atoms: C_2  and  C_16
REMARK    4  A    between atoms: C_4  and  C_6
REMARK    5  A    between atoms: C_19  and  O_20
REMARK    6  A    between atoms: O_20  and  C_21
REMARK                            x       y       z     vdW  Elec       q    Type
REMARK                         _______ _______ _______ _____ _____    ______ ____
ROOT
ATOM      1  C   UNL     1      46.337   4.868  14.352  0.00  0.00    +0.000 C 
ATOM      2  C   UNL     1      46.039   5.927  13.287  0.00  0.00    +0.000 C 
ENDROOT
BRANCH   2   3
ATOM      3  C   UNL     1      45.639   5.241  11.989  0.00  0.00    +0.000 A 
ATOM      4  C   UNL     1      45.115   3.940  12.061  0.00  0.00    +0.000 A 
ATOM      5  C   UNL     1      44.806   3.224  10.903  0.00  0.00    +0.000 A 
ATOM      6  C   UNL     1      44.945   3.820   9.651  0.00  0.00    +0.000 A 
ATOM      7  C   UNL     1      45.489   5.100   9.562  0.00  0.00    +0.000 A 
ATOM      8  C   UNL     1      45.850   5.801  10.720  0.00  0.00    +0.000 A 
BRANCH   6   9
ATOM      9  O   UNL     1      44.645   3.205   8.455  0.00  0.00    +0.000 OA
BRANCH   9  10
ATOM     10  C   UNL     1      45.658   2.740   7.647  0.00  0.00    +0.000 A 
ATOM     11  C   UNL     1      46.121   3.402   6.506  0.00  0.00    +0.000 A 
ATOM     12  C   UNL     1      47.136   2.838   5.732  0.00  0.00    +0.000 A 
ATOM     13  C   UNL     1      47.734   1.644   6.131  0.00  0.00    +0.000 A 
ATOM     14  C   UNL     1      47.322   1.016   7.305  0.00  0.00    +0.000 A 
ATOM     15  C   UNL     1      46.283   1.563   8.062  0.00  0.00    +0.000 A 
ENDBRANCH   9  10
ENDBRANCH   6   9
ENDBRANCH   2   3
BRANCH   2  16
ATOM     16  N   UNL     1      47.149   6.848  13.136  0.00  0.00    +0.000 N 
ATOM     17  C   UNL     1      46.981   8.207  13.210  0.00  0.00    +0.000 C 
ATOM     18  O   UNL     1      45.873   8.719  13.348  0.00  0.00    +0.000 OA
ATOM     19  H   UNL     1      48.070   6.470  12.947  0.00  0.00    +0.000 HD
BRANCH  17  20
ATOM     20  C   UNL     1      48.197   9.031  13.172  0.00  0.00    +0.000 A 
ATOM     21  C   UNL     1      48.153  10.280  12.565  0.00  0.00    +0.000 A 
ATOM     22  S   UNL     1      49.633  11.122  12.617  0.00  0.00    +0.000 S 
ATOM     23  C   UNL     1      50.400   9.830  13.412  0.00  0.00    +0.000 A 
ATOM     24  N   UNL     1      51.722   9.893  13.726  0.00  0.00    +0.000 NA
ATOM     25  C   UNL     1      52.187   8.830  14.289  0.00  0.00    +0.000 A 
ATOM     26  N   UNL     1      51.450   7.714  14.583  0.00  0.00    +0.000 N 
ATOM     27  C   UNL     1      50.099   7.637  14.351  0.00  0.00    +0.000 A 
ATOM     28  O   UNL     1      49.441   6.677  14.749  0.00  0.00    +0.000 OA
ATOM     29  C   UNL     1      49.532   8.783  13.666  0.00  0.00    +0.000 A 
ATOM     30  H   UNL     1      51.869   6.925  15.053  0.00  0.00    +0.000 HD
ENDBRANCH  17  20
ENDBRANCH   2  16
TORSDOF 5
ENDMDL
MODEL 3
REMARK VINA RESULT:    -7.842      2.602      4.558
REMARK INTER + INTRA:         -10.943
REMARK INTER:                 -10.623
REMARK INTRA:                  -0.320
REMARK UNBOUND:                -0.809
REMARK  Name = 
REMARK  6 active torsions:
REMARK  status: ('A' for Active; 'I' for Inactive)
REMARK    1  A    between atoms: C_1  and  C_2
REMARK    2  A    between atoms: C_2  and  N_3
REMARK    3  A    between atoms: C_2  and  C_16
REMARK    4  A    between atoms: C_4  and  C_6
REMARK    5  A    between atoms: C_19  and  O_20
REMARK    6  A    between atoms: O_20  and  C_21
REMARK                            x       y       z     vdW  Elec       q    Type
REMARK                         _______ _______ _______ _____ _____    ______ ____
ROOT
ATOM      1  C   UNL     1      46.733   4.358  14.393  0.00  0.00    +0.000 C 
ATOM      2  C   UNL     1      45.870   5.383  13.654  0.00  0.00    +0.000 C 
ENDROOT
BRANCH   2   3
ATOM      3  C   UNL     1      45.501   4.839  12.281  0.00  0.00    +0.000 A 
ATOM      4  C   UNL     1      45.055   3.510  12.193  0.00  0.00    +0.000 A 
ATOM      5  C   UNL     1      44.781   2.924  10.956  0.00  0.00    +0.000 A 
ATOM      6  C   UNL     1      44.875   3.677   9.786  0.00  0.00    +0.000 A 
ATOM      7  C   UNL     1      45.342   4.987   9.856  0.00  0.00    +0.000 A 
ATOM      8  C   UNL     1      45.670   5.561  11.091  0.00  0.00    +0.000 A 
BRANCH   6   9
ATOM      9  O   UNL     1      44.603   3.196   8.525  0.00  0.00    +0.000 OA
BRANCH   9  10
ATOM     10  C   UNL     1      45.631   2.768   7.715  0.00  0.00    +0.000 A 
ATOM     11  C   UNL     1      46.126   3.489   6.624  0.00  0.00    +0.000 A 
ATOM     12  C   UNL     1      47.154   2.960   5.843  0.00  0.00    +0.000 A 
ATOM     13  C   UNL     1      47.733   1.739   6.187  0.00  0.00    +0.000 A 
ATOM     14  C   UNL     1      47.288   1.050   7.313  0.00  0.00    +0.000 A 
ATOM     15  C   UNL     1      46.237   1.563   8.077  0.00  0.00    +0.000 A 
ENDBRANCH   9  10
ENDBRANCH   6   9
ENDBRANCH   2   3
BRANCH   2  16
ATOM     16  N   UNL     1      46.516   6.681  13.607  0.00  0.00    +0.000 N 
ATOM     17  C   UNL     1      47.828   6.827  13.235  0.00  0.00    +0.000 C 
ATOM     18  O   UNL     1      48.543   5.861  12.980  0.00  0.00    +0.000 OA
ATOM     19  H   UNL     1      45.983   7.498  13.881  0.00  0.00    +0.000 HD
BRANCH  17  20
ATOM     20  C   UNL     1      48.333   8.199  13.100  0.00  0.00    +0.000 A 
ATOM     21  C   UNL     1      49.656   8.473  13.424  0.00  0.00    +0.000 A 
ATOM     22  S   UNL     1      50.097  10.103  13.199  0.00  0.00    +0.000 S 
ATOM     23  C   UNL     1      48.525  10.514  12.703  0.00  0.00    +0.000 A 
ATOM     24  N   UNL     1      48.208  11.799  12.389  0.00  0.00    +0.000 NA
ATOM     25  C   UNL     1      46.972  11.980  12.069  0.00  0.00    +0.000 A 
ATOM     26  N   UNL     1      46.024  10.993  12.019  0.00  0.00    +0.000 N 
ATOM     27  C   UNL     1      46.316   9.673  12.256  0.00  0.00    +0.000 A 
ATOM     28  O   UNL     1      45.476   8.794  12.072  0.00  0.00    +0.000 OA
ATOM     29  C   UNL     1      47.681   9.418  12.677  0.00  0.00    +0.000 A 
ATOM     30  H   UNL     1      45.078  11.198  11.732  0.00  0.00    +0.000 HD
ENDBRANCH  17  20
ENDBRANCH   2  16
TORSDOF 5
ENDMDL
MODEL 4
REMARK VINA RESULT:    -7.763      4.138      9.654
REMARK INTER + INTRA:         -10.841
REMARK INTER:                  -9.583
REMARK INTRA:                  -1.258
REMARK UNBOUND:                -0.809
REMARK  Name = 
REMARK  6 active torsions:
REMARK  status: ('A' for Active; 'I' for Inactive)
REMARK    1  A    between atoms: C_1  and  C_2
REMARK    2  A    between atoms: C_2  and  N_3
REMARK    3  A    between atoms: C_2  and  C_16
REMARK    4  A    between atoms: C_4  and  C_6
REMARK    5  A    between atoms: C_19  and  O_20
REMARK    6  A    between atoms: O_20  and  C_21
REMARK                            x       y       z     vdW  Elec       q    Type
REMARK                         _______ _______ _______ _____ _____    ______ ____
ROOT
ATOM      1  C   UNL     1      47.842   3.213  16.815  0.00  0.00    +0.000 C 
ATOM      2  C   UNL     1      48.045   4.643  16.309  0.00  0.00    +0.000 C 
ENDROOT
BRANCH   2   3
ATOM      3  C   UNL     1      48.075   5.600  17.492  0.00  0.00    +0.000 A 
ATOM      4  C   UNL     1      49.021   6.638  17.481  0.00  0.00    +0.000 A 
ATOM      5  C   UNL     1      49.157   7.498  18.572  0.00  0.00    +0.000 A 
ATOM      6  C   UNL     1      48.300   7.386  19.666  0.00  0.00    +0.000 A 
ATOM      7  C   UNL     1      47.375   6.345  19.703  0.00  0.00    +0.000 A 
ATOM      8  C   UNL     1      47.272   5.447  18.632  0.00  0.00    +0.000 A 
BRANCH   6   9
ATOM      9  O   UNL     1      48.340   8.200  20.776  0.00  0.00    +0.000 OA
BRANCH   9  10
ATOM     10  C   UNL     1      47.349   9.134  20.981  0.00  0.00    +0.000 A 
ATOM     11  C   UNL     1      46.643   9.282  22.178  0.00  0.00    +0.000 A 
ATOM     12  C   UNL     1      45.634  10.241  22.283  0.00  0.00    +0.000 A 
ATOM     13  C   UNL     1      45.372  11.095  21.214  0.00  0.00    +0.000 A 
ATOM     14  C   UNL     1      46.120  10.996  20.042  0.00  0.00    +0.000 A 
ATOM     15  C   UNL     1      47.107  10.015  19.925  0.00  0.00    +0.000 A 
ENDBRANCH   9  10
ENDBRANCH   6   9
ENDBRANCH   2   3
BRANCH   2  16
ATOM     16  N   UNL     1      47.055   4.993  15.308  0.00  0.00    +0.000 N 
ATOM     17  C   UNL     1      47.381   5.699  14.178  0.00  0.00    +0.000 C 
ATOM     18  O   UNL     1      48.516   6.126  13.983  0.00  0.00    +0.000 OA
ATOM     19  H   UNL     1      46.091   4.724  15.466  0.00  0.00    +0.000 HD
BRANCH  17  20
ATOM     20  C   UNL     1      46.321   5.880  13.177  0.00  0.00    +0.000 A 
ATOM     21  C   UNL     1      45.980   7.164  12.771  0.00  0.00    +0.000 A 
ATOM     22  S   UNL     1      44.750   7.210  11.594  0.00  0.00    +0.000 S 
ATOM     23  C   UNL     1      44.594   5.517  11.617  0.00  0.00    +0.000 A 
ATOM     24  N   UNL     1      43.665   4.893  10.843  0.00  0.00    +0.000 NA
ATOM     25  C   UNL     1      43.624   3.613  10.986  0.00  0.00    +0.000 A 
ATOM     26  N   UNL     1      44.437   2.894  11.821  0.00  0.00    +0.000 N 
ATOM     27  C   UNL     1      45.436   3.473  12.563  0.00  0.00    +0.000 A 
ATOM     28  O   UNL     1      46.235   2.787  13.197  0.00  0.00    +0.000 OA
ATOM     29  C   UNL     1      45.491   4.921  12.484  0.00  0.00    +0.000 A 
ATOM     30  H   UNL     1      44.374   1.887  11.864  0.00  0.00    +0.000 HD
ENDBRANCH  17  20
ENDBRANCH   2  16
TORSDOF 5
ENDMDL
MODEL 5
REMARK VINA RESULT:    -7.634      2.130      2.894
REMARK INTER + INTRA:         -10.674
REMARK INTER:                  -9.863
REMARK INTRA:                  -0.811
REMARK UNBOUND:                -0.809
REMARK  Name = 
REMARK  6 active torsions:
REMARK  status: ('A' for Active; 'I' for Inactive)
REMARK    1  A    between atoms: C_1  and  C_2
REMARK    2  A    between atoms: C_2  and  N_3
REMARK    3  A    between atoms: C_2  and  C_16
REMARK    4  A    between atoms: C_4  and  C_6
REMARK    5  A    between atoms: C_19  and  O_20
REMARK    6  A    between atoms: O_20  and  C_21
REMARK                            x       y       z     vdW  Elec       q    Type
REMARK                         _______ _______ _______ _____ _____    ______ ____
ROOT
ATOM      1  C   UNL     1      49.291   8.211  13.765  0.00  0.00    +0.000 C 
ATOM      2  C   UNL     1      48.735   6.888  14.297  0.00  0.00    +0.000 C 
ENDROOT
BRANCH   2   3
ATOM      3  C   UNL     1      47.627   6.398  13.376  0.00  0.00    +0.000 A 
ATOM      4  C   UNL     1      46.951   5.217  13.724  0.00  0.00    +0.000 A 
ATOM      5  C   UNL     1      45.982   4.668  12.882  0.00  0.00    +0.000 A 
ATOM      6  C   UNL     1      45.617   5.327  11.709  0.00  0.00    +0.000 A 
ATOM      7  C   UNL     1      46.299   6.484  11.337  0.00  0.00    +0.000 A 
ATOM      8  C   UNL     1      47.308   7.008  12.154  0.00  0.00    +0.000 A 
BRANCH   6   9
ATOM      9  O   UNL     1      44.659   4.878  10.827  0.00  0.00    +0.000 OA
BRANCH   9  10
ATOM     10  C   UNL     1      45.003   3.995   9.828  0.00  0.00    +0.000 A 
ATOM     11  C   UNL     1      44.805   2.613   9.897  0.00  0.00    +0.000 A 
ATOM     12  C   UNL     1      45.213   1.793   8.844  0.00  0.00    +0.000 A 
ATOM     13  C   UNL     1      45.760   2.358   7.693  0.00  0.00    +0.000 A 
ATOM     14  C   UNL     1      45.896   3.742   7.592  0.00  0.00    +0.000 A 
ATOM     15  C   UNL     1      45.519   4.560   8.660  0.00  0.00    +0.000 A 
ENDBRANCH   9  10
ENDBRANCH   6   9
ENDBRANCH   2   3
BRANCH   2  16
ATOM     16  N   UNL     1      48.323   7.010  15.683  0.00  0.00    +0.000 N 
ATOM     17  C   UNL     1      49.066   6.490  16.711  0.00  0.00    +0.000 C 
ATOM     18  O   UNL     1      50.090   5.841  16.510  0.00  0.00    +0.000 OA
ATOM     19  H   UNL     1      47.446   7.475  15.888  0.00  0.00    +0.000 HD
BRANCH  17  20
ATOM     20  C   UNL     1      48.616   6.789  18.076  0.00  0.00    +0.000 A 
ATOM     21  C   UNL     1      48.249   8.089  18.402  0.00  0.00    +0.000 A 
ATOM     22  S   UNL     1      47.733   8.275  20.015  0.00  0.00    +0.000 S 
ATOM     23  C   UNL     1      48.024   6.635  20.351  0.00  0.00    +0.000 A 
ATOM     24  N   UNL     1      47.815   6.133  21.599  0.00  0.00    +0.000 NA
ATOM     25  C   UNL     1      48.114   4.885  21.728  0.00  0.00    +0.000 A 
ATOM     26  N   UNL     1      48.588   4.086  20.722  0.00  0.00    +0.000 N 
ATOM     27  C   UNL     1      48.743   4.532  19.433  0.00  0.00    +0.000 A 
ATOM     28  O   UNL     1      49.041   3.758  18.525  0.00  0.00    +0.000 OA
ATOM     29  C   UNL     1      48.476   5.945  19.241  0.00  0.00    +0.000 A 
ATOM     30  H   UNL     1      48.775   3.107  20.882  0.00  0.00    +0.000 HD
ENDBRANCH  17  20
ENDBRANCH   2  16
TORSDOF 5
ENDMDL
MODEL 6
REMARK VINA RESULT:    -7.550      2.459      3.489
REMARK INTER + INTRA:         -10.566
REMARK INTER:                  -9.297
REMARK INTRA:                  -1.269
REMARK UNBOUND:                -0.809
REMARK  Name = 
REMARK  6 active torsions:
REMARK  status: ('A' for Active; 'I' for Inactive)
REMARK    1  A    between atoms: C_1  and  C_2
REMARK    2  A    between atoms: C_2  and  N_3
REMARK    3  A    between atoms: C_2  and  C_16
REMARK    4  A    between atoms: C_4  and  C_6
REMARK    5  A    between atoms: C_19  and  O_20
REMARK    6  A    between atoms: O_20  and  C_21
REMARK                            x       y       z     vdW  Elec       q    Type
REMARK                         _______ _______ _______ _____ _____    ______ ____
ROOT
ATOM      1  C   UNL     1      48.616   8.561  14.409  0.00  0.00    +0.000 C 
ATOM      2  C   UNL     1      48.545   7.042  14.583  0.00  0.00    +0.000 C 
ENDROOT
BRANCH   2   3
ATOM      3  C   UNL     1      47.522   6.468  13.613  0.00  0.00    +0.000 A 
ATOM      4  C   UNL     1      46.979   7.323  12.640  0.00  0.00    +0.000 A 
ATOM      5  C   UNL     1      45.977   6.882  11.774  0.00  0.00    +0.000 A 
ATOM      6  C   UNL     1      45.548   5.556  11.814  0.00  0.00    +0.000 A 
ATOM      7  C   UNL     1      46.058   4.704  12.791  0.00  0.00    +0.000 A 
ATOM      8  C   UNL     1      47.026   5.159  13.696  0.00  0.00    +0.000 A 
BRANCH   6   9
ATOM      9  O   UNL     1      44.584   5.022  10.988  0.00  0.00    +0.000 OA
BRANCH   9  10
ATOM     10  C   UNL     1      44.942   4.148   9.987  0.00  0.00    +0.000 A 
ATOM     11  C   UNL     1      44.585   2.797   9.957  0.00  0.00    +0.000 A 
ATOM     12  C   UNL     1      45.020   1.979   8.913  0.00  0.00    +0.000 A 
ATOM     13  C   UNL     1      45.758   2.524   7.863  0.00  0.00    +0.000 A 
ATOM     14  C   UNL     1      46.058   3.885   7.854  0.00  0.00    +0.000 A 
ATOM     15  C   UNL     1      45.652   4.697   8.916  0.00  0.00    +0.000 A 
ENDBRANCH   9  10
ENDBRANCH   6   9
ENDBRANCH   2   3
BRANCH   2  16
ATOM     16  N   UNL     1      48.297   6.681  15.966  0.00  0.00    +0.000 N 
ATOM     17  C   UNL     1      49.258   6.094  16.748  0.00  0.00    +0.000 C 
ATOM     18  O   UNL     1      50.361   5.786  16.303  0.00  0.00    +0.000 OA
ATOM     19  H   UNL     1      47.375   6.850  16.352  0.00  0.00    +0.000 HD
BRANCH  17  20
ATOM     20  C   UNL     1      48.932   5.895  18.166  0.00  0.00    +0.000 A 
ATOM     21  C   UNL     1      49.163   4.656  18.751  0.00  0.00    +0.000 A 
ATOM     22  S   UNL     1      48.752   4.586  20.402  0.00  0.00    +0.000 S 
ATOM     23  C   UNL     1      48.207   6.196  20.388  0.00  0.00    +0.000 A 
ATOM     24  N   UNL     1      47.681   6.762  21.507  0.00  0.00    +0.000 NA
ATOM     25  C   UNL     1      47.268   7.973  21.348  0.00  0.00    +0.000 A 
ATOM     26  N   UNL     1      47.345   8.678  20.177  0.00  0.00    +0.000 N 
ATOM     27  C   UNL     1      47.934   8.172  19.045  0.00  0.00    +0.000 A 
ATOM     28  O   UNL     1      48.110   8.876  18.052  0.00  0.00    +0.000 OA
ATOM     29  C   UNL     1      48.366   6.791  19.149  0.00  0.00    +0.000 A 
ATOM     30  H   UNL     1      47.030   9.636  20.127  0.00  0.00    +0.000 HD
ENDBRANCH  17  20
ENDBRANCH   2  16
TORSDOF 5
ENDMDL
MODEL 7
REMARK VINA RESULT:    -7.305      2.743      4.335
REMARK INTER + INTRA:         -10.249
REMARK INTER:                  -9.152
REMARK INTRA:                  -1.097
REMARK UNBOUND:                -0.809
REMARK  Name = 
REMARK  6 active torsions:
REMARK  status: ('A' for Active; 'I' for Inactive)
REMARK    1  A    between atoms: C_1  and  C_2
REMARK    2  A    between atoms: C_2  and  N_3
REMARK    3  A    between atoms: C_2  and  C_16
REMARK    4  A    between atoms: C_4  and  C_6
REMARK    5  A    between atoms: C_19  and  O_20
REMARK    6  A    between atoms: O_20  and  C_21
REMARK                            x       y       z     vdW  Elec       q    Type
REMARK                         _______ _______ _______ _____ _____    ______ ____
ROOT
ATOM      1  C   UNL     1      47.231   4.669  15.139  0.00  0.00    +0.000 C 
ATOM      2  C   UNL     1      47.089   5.809  14.128  0.00  0.00    +0.000 C 
ENDROOT
BRANCH   2   3
ATOM      3  C   UNL     1      46.383   5.296  12.881  0.00  0.00    +0.000 A 
ATOM      4  C   UNL     1      45.805   4.017  12.926  0.00  0.00    +0.000 A 
ATOM      5  C   UNL     1      45.216   3.454  11.793  0.00  0.00    +0.000 A 
ATOM      6  C   UNL     1      45.125   4.187  10.611  0.00  0.00    +0.000 A 
ATOM      7  C   UNL     1      45.718   5.446  10.543  0.00  0.00    +0.000 A 
ATOM      8  C   UNL     1      46.357   5.992  11.664  0.00  0.00    +0.000 A 
BRANCH   6   9
ATOM      9  O   UNL     1      44.543   3.728   9.450  0.00  0.00    +0.000 OA
BRANCH   9  10
ATOM     10  C   UNL     1      45.314   3.113   8.490  0.00  0.00    +0.000 A 
ATOM     11  C   UNL     1      45.798   3.749   7.343  0.00  0.00    +0.000 A 
ATOM     12  C   UNL     1      46.550   3.034   6.409  0.00  0.00    +0.000 A 
ATOM     13  C   UNL     1      46.874   1.701   6.650  0.00  0.00    +0.000 A 
ATOM     14  C   UNL     1      46.452   1.082   7.825  0.00  0.00    +0.000 A 
ATOM     15  C   UNL     1      45.671   1.787   8.744  0.00  0.00    +0.000 A 
ENDBRANCH   9  10
ENDBRANCH   6   9
ENDBRANCH   2   3
BRANCH   2  16
ATOM     16  N   UNL     1      48.371   6.431  13.852  0.00  0.00    +0.000 N 
ATOM     17  C   UNL     1      48.974   7.280  14.744  0.00  0.00    +0.000 C 
ATOM     18  O   UNL     1      48.435   7.606  15.799  0.00  0.00    +0.000 OA
ATOM     19  H   UNL     1      48.816   6.246  12.961  0.00  0.00    +0.000 HD
BRANCH  17  20
ATOM     20  C   UNL     1      50.328   7.743  14.411  0.00  0.00    +0.000 A 
ATOM     21  C   UNL     1      51.343   7.609  15.349  0.00  0.00    +0.000 A 
ATOM     22  S   UNL     1      52.857   8.174  14.811  0.00  0.00    +0.000 S 
ATOM     23  C   UNL     1      52.203   8.662  13.320  0.00  0.00    +0.000 A 
ATOM     24  N   UNL     1      52.981   9.271  12.384  0.00  0.00    +0.000 NA
ATOM     25  C   UNL     1      52.351   9.626  11.317  0.00  0.00    +0.000 A 
ATOM     26  N   UNL     1      51.017   9.416  11.090  0.00  0.00    +0.000 N 
ATOM     27  C   UNL     1      50.212   8.741  11.973  0.00  0.00    +0.000 A 
ATOM     28  O   UNL     1      49.053   8.450  11.681  0.00  0.00    +0.000 OA
ATOM     29  C   UNL     1      50.855   8.367  13.219  0.00  0.00    +0.000 A 
ATOM     30  H   UNL     1      50.591   9.693  10.217  0.00  0.00    +0.000 HD
ENDBRANCH  17  20
ENDBRANCH   2  16
TORSDOF 5
ENDMDL
MODEL 8
REMARK VINA RESULT:    -7.198      3.319      5.257
REMARK INTER + INTRA:         -10.111
REMARK INTER:                  -9.562
REMARK INTRA:                  -0.549
REMARK UNBOUND:                -0.809
REMARK  Name = 
REMARK  6 active torsions:
REMARK  status: ('A' for Active; 'I' for Inactive)
REMARK    1  A    between atoms: C_1  and  C_2
REMARK    2  A    between atoms: C_2  and  N_3
REMARK    3  A    between atoms: C_2  and  C_16
REMARK    4  A    between atoms: C_4  and  C_6
REMARK    5  A    between atoms: C_19  and  O_20
REMARK    6  A    between atoms: O_20  and  C_21
REMARK                            x       y       z     vdW  Elec       q    Type
REMARK                         _______ _______ _______ _____ _____    ______ ____
ROOT
ATOM      1  C   UNL     1      46.869   5.670  14.029  0.00  0.00    +0.000 C 
ATOM      2  C   UNL     1      46.028   6.494  13.051  0.00  0.00    +0.000 C 
ENDROOT
BRANCH   2   3
ATOM      3  C   UNL     1      45.617   5.622  11.875  0.00  0.00    +0.000 A 
ATOM      4  C   UNL     1      45.010   4.385  12.147  0.00  0.00    +0.000 A 
ATOM      5  C   UNL     1      44.685   3.501  11.117  0.00  0.00    +0.000 A 
ATOM      6  C   UNL     1      44.892   3.865   9.787  0.00  0.00    +0.000 A 
ATOM      7  C   UNL     1      45.519   5.077   9.503  0.00  0.00    +0.000 A 
ATOM      8  C   UNL     1      45.895   5.943  10.538  0.00  0.00    +0.000 A 
BRANCH   6   9
ATOM      9  O   UNL     1      44.584   3.073   8.703  0.00  0.00    +0.000 OA
BRANCH   9  10
ATOM     10  C   UNL     1      45.578   2.671   7.840  0.00  0.00    +0.000 A 
ATOM     11  C   UNL     1      45.975   3.388   6.708  0.00  0.00    +0.000 A 
ATOM     12  C   UNL     1      46.975   2.886   5.874  0.00  0.00    +0.000 A 
ATOM     13  C   UNL     1      47.624   1.697   6.204  0.00  0.00    +0.000 A 
ATOM     14  C   UNL     1      47.279   1.014   7.369  0.00  0.00    +0.000 A 
ATOM     15  C   UNL     1      46.255   1.499   8.186  0.00  0.00    +0.000 A 
ENDBRANCH   9  10
ENDBRANCH   6   9
ENDBRANCH   2   3
BRANCH   2  16
ATOM     16  N   UNL     1      46.717   7.709  12.658  0.00  0.00    +0.000 N 
ATOM     17  C   UNL     1      46.040   8.831  12.253  0.00  0.00    +0.000 C 
ATOM     18  O   UNL     1      44.816   8.848  12.144  0.00  0.00    +0.000 OA
ATOM     19  H   UNL     1      47.730   7.713  12.663  0.00  0.00    +0.000 HD
BRANCH  17  20
ATOM     20  C   UNL     1      46.840  10.037  12.006  0.00  0.00    +0.000 A 
ATOM     21  C   UNL     1      46.224  11.282  12.046  0.00  0.00    +0.000 A 
ATOM     22  S   UNL     1      47.283  12.584  11.758  0.00  0.00    +0.000 S 
ATOM     23  C   UNL     1      48.596  11.531  11.521  0.00  0.00    +0.000 A 
ATOM     24  N   UNL     1      49.826  12.014  11.197  0.00  0.00    +0.000 NA
ATOM     25  C   UNL     1      50.722  11.107  11.006  0.00  0.00    +0.000 A 
ATOM     26  N   UNL     1      50.507   9.759  11.123  0.00  0.00    +0.000 N 
ATOM     27  C   UNL     1      49.303   9.233  11.519  0.00  0.00    +0.000 A 
ATOM     28  O   UNL     1      49.180   8.030  11.745  0.00  0.00    +0.000 OA
ATOM     29  C   UNL     1      48.241  10.205  11.693  0.00  0.00    +0.000 A 
ATOM     30  H   UNL     1      51.261   9.101  10.988  0.00  0.00    +0.000 HD
ENDBRANCH  17  20
ENDBRANCH   2  16
TORSDOF 5
ENDMDL
MODEL 9
REMARK VINA RESULT:    -7.184      3.360      5.679
REMARK INTER + INTRA:         -10.093
REMARK INTER:                 -10.123
REMARK INTRA:                   0.030
REMARK UNBOUND:                -0.809
REMARK  Name = 
REMARK  6 active torsions:
REMARK  status: ('A' for Active; 'I' for Inactive)
REMARK    1  A    between atoms: C_1  and  C_2
REMARK    2  A    between atoms: C_2  and  N_3
REMARK    3  A    between atoms: C_2  and  C_16
REMARK    4  A    between atoms: C_4  and  C_6
REMARK    5  A    between atoms: C_19  and  O_20
REMARK    6  A    between atoms: O_20  and  C_21
REMARK                            x       y       z     vdW  Elec       q    Type
REMARK                         _______ _______ _______ _____ _____    ______ ____
ROOT
ATOM      1  C   UNL     1      46.274   5.553  13.951  0.00  0.00    +0.000 C 
ATOM      2  C   UNL     1      45.026   6.008  13.191  0.00  0.00    +0.000 C 
ENDROOT
BRANCH   2   3
ATOM      3  C   UNL     1      44.836   5.136  11.959  0.00  0.00    +0.000 A 
ATOM      4  C   UNL     1      44.312   3.845  12.136  0.00  0.00    +0.000 A 
ATOM      5  C   UNL     1      44.190   2.965  11.059  0.00  0.00    +0.000 A 
ATOM      6  C   UNL     1      44.521   3.381   9.771  0.00  0.00    +0.000 A 
ATOM      7  C   UNL     1      45.068   4.649   9.584  0.00  0.00    +0.000 A 
ATOM      8  C   UNL     1      45.241   5.516  10.671  0.00  0.00    +0.000 A 
BRANCH   6   9
ATOM      9  O   UNL     1      44.414   2.596   8.644  0.00  0.00    +0.000 OA
BRANCH   9  10
ATOM     10  C   UNL     1      45.504   2.418   7.823  0.00  0.00    +0.000 A 
ATOM     11  C   UNL     1      45.874   3.301   6.804  0.00  0.00    +0.000 A 
ATOM     12  C   UNL     1      46.981   3.021   6.002  0.00  0.00    +0.000 A 
ATOM     13  C   UNL     1      47.759   1.893   6.257  0.00  0.00    +0.000 A 
ATOM     14  C   UNL     1      47.433   1.047   7.316  0.00  0.00    +0.000 A 
ATOM     15  C   UNL     1      46.306   1.308   8.097  0.00  0.00    +0.000 A 
ENDBRANCH   9  10
ENDBRANCH   6   9
ENDBRANCH   2   3
BRANCH   2  16
ATOM     16  N   UNL     1      45.080   7.427  12.892  0.00  0.00    +0.000 N 
ATOM     17  C   UNL     1      46.241   8.045  12.503  0.00  0.00    +0.000 C 
ATOM     18  O   UNL     1      47.311   7.442  12.445  0.00  0.00    +0.000 OA
ATOM     19  H   UNL     1      44.235   7.977  12.998  0.00  0.00    +0.000 HD
BRANCH  17  20
ATOM     20  C   UNL     1      46.143   9.454  12.102  0.00  0.00    +0.000 A 
ATOM     21  C   UNL     1      47.191  10.319  12.394  0.00  0.00    +0.000 A 
ATOM     22  S   UNL     1      46.939  11.914  11.851  0.00  0.00    +0.000 S 
ATOM     23  C   UNL     1      45.400  11.520  11.247  0.00  0.00    +0.000 A 
ATOM     24  N   UNL     1      44.615  12.470  10.670  0.00  0.00    +0.000 NA
ATOM     25  C   UNL     1      43.457  12.046  10.293  0.00  0.00    +0.000 A 
ATOM     26  N   UNL     1      43.015  10.757  10.424  0.00  0.00    +0.000 N 
ATOM     27  C   UNL     1      43.800   9.752  10.931  0.00  0.00    +0.000 A 
ATOM     28  O   UNL     1      43.425   8.581  10.911  0.00  0.00    +0.000 OA
ATOM     29  C   UNL     1      45.094  10.182  11.425  0.00  0.00    +0.000 A 
ATOM     30  H   UNL     1      42.105  10.484  10.079  0.00  0.00    +0.000 HD
ENDBRANCH  17  20
ENDBRANCH   2  16
TORSDOF 5
ENDMDL
