MODEL 1
REMARK VINA RESULT:    -7.903      0.000      0.000
REMARK INTER + INTRA:         -12.606
REMARK INTER:                 -11.599
REMARK INTRA:                  -1.006
REMARK UNBOUND:                -1.006
REMARK  Name = 
REMARK  8 active torsions:
REMARK  status: ('A' for Active; 'I' for Inactive)
REMARK    1  A    between atoms: C_2  and  C_3
REMARK    2  A    between atoms: C_8  and  C_9
REMARK    3  A    between atoms: C_9  and  N_10
REMARK    4  A    between atoms: N_10  and  C_11
REMARK    5  A    between atoms: C_11  and  C_12
REMARK    6  A    between atoms: C_15  and  C_16
REMARK    7  A    between atoms: C_16  and  N_17
REMARK    8  A    between atoms: C_18  and  C_20
REMARK                            x       y       z     vdW  Elec       q    Type
REMARK                         _______ _______ _______ _____ _____    ______ ____
ROOT
ATOM      1  C   UNL     1      44.412   4.404  11.406  0.00  0.00    +0.000 A 
ATOM      2  C   UNL     1      43.972   5.734  11.347  0.00  0.00    +0.000 A 
ATOM      3  C   UNL     1      44.725   6.763  11.921  0.00  0.00    +0.000 A 
ATOM      4  C   UNL     1      45.938   6.482  12.563  0.00  0.00    +0.000 A 
ATOM      5  C   UNL     1      46.360   5.150  12.657  0.00  0.00    +0.000 A 
ATOM      6  C   UNL     1      45.607   4.121  12.082  0.00  0.00    +0.000 A 
ENDROOT
BRANCH   1   7
ATOM      7  C   UNL     1      43.609   3.292  10.770  0.00  0.00    +0.000 C 
BRANCH   7   8
ATOM      8  N   UNL     1      44.392   2.093  10.460  0.00  0.00    +0.000 NA
ATOM      9  H   UNL     1      45.362   2.265  10.722  0.00  0.00    +0.000 HD
BRANCH   8  10
ATOM     10  C   UNL     1      44.358   1.741   9.035  0.00  0.00    +0.000 C 
BRANCH  10  16
ATOM     11  C   UNL     1      46.541   1.763   7.665  0.00  0.00    +0.000 A 
ATOM     12  C   UNL     1      47.535   2.488   6.980  0.00  0.00    +0.000 A 
ATOM     13  C   UNL     1      47.492   3.880   6.931  0.00  0.00    +0.000 A 
ATOM     14  C   UNL     1      46.461   4.563   7.565  0.00  0.00    +0.000 A 
ATOM     15  C   UNL     1      45.464   3.853   8.236  0.00  0.00    +0.000 A 
ATOM     16  C   UNL     1      45.478   2.444   8.285  0.00  0.00    +0.000 A 
BRANCH  11  18
ATOM     17  N   UNL     1      46.786  -0.820   7.753  0.00  0.00    +0.000 NA
ATOM     18  C   UNL     1      46.669   0.334   7.710  0.00  0.00    +0.000 C 
ENDBRANCH  11  18
ENDBRANCH  10  16
ENDBRANCH   8  10
ENDBRANCH   7   8
ENDBRANCH   1   7
BRANCH   4  19
ATOM     19  C   UNL     1      46.768   7.588  13.161  0.00  0.00    +0.000 C 
BRANCH  19  20
ATOM     20  N   UNL     1      47.347   7.198  14.421  0.00  0.00    +0.000 N 
ATOM     21  C   UNL     1      48.649   6.773  14.493  0.00  0.00    +0.000 C 
ATOM     22  O   UNL     1      49.384   6.760  13.508  0.00  0.00    +0.000 OA
ATOM     23  H   UNL     1      46.707   6.991  15.182  0.00  0.00    +0.000 HD
BRANCH  21  24
ATOM     24  C   UNL     1      49.149   6.390  15.820  0.00  0.00    +0.000 A 
ATOM     25  C   UNL     1      50.240   7.059  16.361  0.00  0.00    +0.000 A 
ATOM     26  S   UNL     1      50.665   6.527  17.924  0.00  0.00    +0.000 S 
ATOM     27  C   UNL     1      49.438   5.349  17.914  0.00  0.00    +0.000 A 
ATOM     28  N   UNL     1      49.267   4.512  18.972  0.00  0.00    +0.000 NA
ATOM     29  C   UNL     1      48.320   3.647  18.818  0.00  0.00    +0.000 A 
ATOM     30  N   UNL     1      47.527   3.546  17.705  0.00  0.00    +0.000 N 
ATOM     31  C   UNL     1      47.644   4.387  16.624  0.00  0.00    +0.000 A 
ATOM     32  O   UNL     1      46.892   4.295  15.660  0.00  0.00    +0.000 OA
ATOM     33  C   UNL     1      48.703   5.372  16.741  0.00  0.00    +0.000 A 
ATOM     34  H   UNL     1      46.798   2.849  17.651  0.00  0.00    +0.000 HD
ENDBRANCH  21  24
ENDBRANCH  19  20
ENDBRANCH   4  19
TORSDOF 8
ENDMDL
MODEL 2
REMARK VINA RESULT:    -7.605      3.039      5.285
REMARK INTER + INTRA:         -12.168
REMARK INTER:                 -10.554
REMARK INTRA:                  -1.614
REMARK UNBOUND:                -1.006
REMARK  Name = 
REMARK  8 active torsions:
REMARK  status: ('A' for Active; 'I' for Inactive)
REMARK    1  A    between atoms: C_2  and  C_3
REMARK    2  A    between atoms: C_8  and  C_9
REMARK    3  A    between atoms: C_9  and  N_10
REMARK    4  A    between atoms: N_10  and  C_11
REMARK    5  A    between atoms: C_11  and  C_12
REMARK    6  A    between atoms: C_15  and  C_16
REMARK    7  A    between atoms: C_16  and  N_17
REMARK    8  A    between atoms: C_18  and  C_20
REMARK                            x       y       z     vdW  Elec       q    Type
REMARK                         _______ _______ _______ _____ _____    ______ ____
ROOT
ATOM      1  C   UNL     1      47.378   5.715  13.615  0.00  0.00    +0.000 A 
ATOM      2  C   UNL     1      46.926   4.388  13.630  0.00  0.00    +0.000 A 
ATOM      3  C   UNL     1      47.057   3.601  14.779  0.00  0.00    +0.000 A 
ATOM      4  C   UNL     1      47.638   4.129  15.940  0.00  0.00    +0.000 A 
ATOM      5  C   UNL     1      48.125   5.442  15.913  0.00  0.00    +0.000 A 
ATOM      6  C   UNL     1      47.993   6.229  14.765  0.00  0.00    +0.000 A 
ENDROOT
BRANCH   1   7
ATOM      7  C   UNL     1      47.221   6.574  12.380  0.00  0.00    +0.000 C 
BRANCH   7   8
ATOM      8  N   UNL     1      46.048   7.450  12.408  0.00  0.00    +0.000 NA
ATOM      9  H   UNL     1      45.584   7.340  13.309  0.00  0.00    +0.000 HD
BRANCH   8  10
ATOM     10  C   UNL     1      45.077   7.140  11.352  0.00  0.00    +0.000 C 
BRANCH  10  16
ATOM     11  C   UNL     1      44.699   4.697  10.621  0.00  0.00    +0.000 A 
ATOM     12  C   UNL     1      44.149   3.427  10.877  0.00  0.00    +0.000 A 
ATOM     13  C   UNL     1      43.392   3.198  12.025  0.00  0.00    +0.000 A 
ATOM     14  C   UNL     1      43.176   4.233  12.927  0.00  0.00    +0.000 A 
ATOM     15  C   UNL     1      43.728   5.492  12.689  0.00  0.00    +0.000 A 
ATOM     16  C   UNL     1      44.510   5.742  11.543  0.00  0.00    +0.000 A 
BRANCH  11  18
ATOM     17  N   UNL     1      46.026   5.001   8.411  0.00  0.00    +0.000 NA
ATOM     18  C   UNL     1      45.432   4.873   9.400  0.00  0.00    +0.000 C 
ENDBRANCH  11  18
ENDBRANCH  10  16
ENDBRANCH   8  10
ENDBRANCH   7   8
ENDBRANCH   1   7
BRANCH   4  19
ATOM     19  C   UNL     1      47.759   3.296  17.189  0.00  0.00    +0.000 C 
BRANCH  19  20
ATOM     20  N   UNL     1      49.132   3.135  17.591  0.00  0.00    +0.000 N 
ATOM     21  C   UNL     1      49.958   2.261  16.930  0.00  0.00    +0.000 C 
ATOM     22  O   UNL     1      49.581   1.629  15.946  0.00  0.00    +0.000 OA
ATOM     23  H   UNL     1      49.388   3.467  18.516  0.00  0.00    +0.000 HD
BRANCH  21  24
ATOM     24  C   UNL     1      51.340   2.159  17.416  0.00  0.00    +0.000 A 
ATOM     25  C   UNL     1      51.916   0.906  17.585  0.00  0.00    +0.000 A 
ATOM     26  S   UNL     1      53.537   0.960  18.109  0.00  0.00    +0.000 S 
ATOM     27  C   UNL     1      53.513   2.660  18.179  0.00  0.00    +0.000 A 
ATOM     28  N   UNL     1      54.608   3.356  18.587  0.00  0.00    +0.000 NA
ATOM     29  C   UNL     1      54.440   4.637  18.622  0.00  0.00    +0.000 A 
ATOM     30  N   UNL     1      53.280   5.283  18.282  0.00  0.00    +0.000 N 
ATOM     31  C   UNL     1      52.159   4.623  17.838  0.00  0.00    +0.000 A 
ATOM     32  O   UNL     1      51.150   5.235  17.504  0.00  0.00    +0.000 OA
ATOM     33  C   UNL     1      52.290   3.179  17.791  0.00  0.00    +0.000 A 
ATOM     34  H   UNL     1      53.217   6.290  18.326  0.00  0.00    +0.000 HD
ENDBRANCH  21  24
ENDBRANCH  19  20
ENDBRANCH   4  19
TORSDOF 8
ENDMDL
MODEL 3
REMARK VINA RESULT:    -7.369      2.888      8.732
REMARK INTER + INTRA:         -11.822
REMARK INTER:                  -9.836
REMARK INTRA:                  -1.986
REMARK UNBOUND:                -1.006
REMARK  Name = 
REMARK  8 active torsions:
REMARK  status: ('A' for Active; 'I' for Inactive)
REMARK    1  A    between atoms: C_2  and  C_3
REMARK    2  A    between atoms: C_8  and  C_9
REMARK    3  A    between atoms: C_9  and  N_10
REMARK    4  A    between atoms: N_10  and  C_11
REMARK    5  A    between atoms: C_11  and  C_12
REMARK    6  A    between atoms: C_15  and  C_16
REMARK    7  A    between atoms: C_16  and  N_17
REMARK    8  A    between atoms: C_18  and  C_20
REMARK                            x       y       z     vdW  Elec       q    Type
REMARK                         _______ _______ _______ _____ _____    ______ ____
ROOT
ATOM      1  C   UNL     1      48.836   7.984  16.387  0.00  0.00    +0.000 A 
ATOM      2  C   UNL     1      48.198   9.068  15.769  0.00  0.00    +0.000 A 
ATOM      3  C   UNL     1      47.840   9.012  14.418  0.00  0.00    +0.000 A 
ATOM      4  C   UNL     1      48.110   7.866  13.659  0.00  0.00    +0.000 A 
ATOM      5  C   UNL     1      48.782   6.798  14.265  0.00  0.00    +0.000 A 
ATOM      6  C   UNL     1      49.139   6.854  15.616  0.00  0.00    +0.000 A 
ENDROOT
BRANCH   1   7
ATOM      7  C   UNL     1      49.207   8.034  17.852  0.00  0.00    +0.000 C 
BRANCH   7   8
ATOM      8  N   UNL     1      48.181   7.492  18.746  0.00  0.00    +0.000 NA
ATOM      9  H   UNL     1      47.931   8.210  19.424  0.00  0.00    +0.000 HD
BRANCH   8  10
ATOM     10  C   UNL     1      48.634   6.305  19.482  0.00  0.00    +0.000 C 
BRANCH  10  16
ATOM     11  C   UNL     1      49.660   4.260  18.295  0.00  0.00    +0.000 A 
ATOM     12  C   UNL     1      49.499   3.124  17.479  0.00  0.00    +0.000 A 
ATOM     13  C   UNL     1      48.251   2.804  16.946  0.00  0.00    +0.000 A 
ATOM     14  C   UNL     1      47.154   3.614  17.220  0.00  0.00    +0.000 A 
ATOM     15  C   UNL     1      47.303   4.735  18.038  0.00  0.00    +0.000 A 
ATOM     16  C   UNL     1      48.551   5.068  18.601  0.00  0.00    +0.000 A 
BRANCH  11  18
ATOM     17  N   UNL     1      52.046   4.804  19.161  0.00  0.00    +0.000 NA
ATOM     18  C   UNL     1      50.981   4.553  18.777  0.00  0.00    +0.000 C 
ENDBRANCH  11  18
ENDBRANCH  10  16
ENDBRANCH   8  10
ENDBRANCH   7   8
ENDBRANCH   1   7
BRANCH   4  19
ATOM     19  C   UNL     1      47.704   7.788  12.210  0.00  0.00    +0.000 C 
BRANCH  19  20
ATOM     20  N   UNL     1      47.001   6.566  11.919  0.00  0.00    +0.000 N 
ATOM     21  C   UNL     1      45.635   6.499  12.026  0.00  0.00    +0.000 C 
ATOM     22  O   UNL     1      44.958   7.483  12.319  0.00  0.00    +0.000 OA
ATOM     23  H   UNL     1      47.547   5.709  11.899  0.00  0.00    +0.000 HD
BRANCH  21  24
ATOM     24  C   UNL     1      45.008   5.208  11.717  0.00  0.00    +0.000 A 
ATOM     25  C   UNL     1      44.309   4.531  12.708  0.00  0.00    +0.000 A 
ATOM     26  S   UNL     1      43.602   3.074  12.176  0.00  0.00    +0.000 S 
ATOM     27  C   UNL     1      44.247   3.270  10.614  0.00  0.00    +0.000 A 
ATOM     28  N   UNL     1      44.031   2.336   9.649  0.00  0.00    +0.000 NA
ATOM     29  C   UNL     1      44.604   2.596   8.521  0.00  0.00    +0.000 A 
ATOM     30  N   UNL     1      45.368   3.706   8.269  0.00  0.00    +0.000 N 
ATOM     31  C   UNL     1      45.590   4.688   9.204  0.00  0.00    +0.000 A 
ATOM     32  O   UNL     1      46.246   5.688   8.935  0.00  0.00    +0.000 OA
ATOM     33  C   UNL     1      44.977   4.439  10.496  0.00  0.00    +0.000 A 
ATOM     34  H   UNL     1      45.784   3.852   7.361  0.00  0.00    +0.000 HD
ENDBRANCH  21  24
ENDBRANCH  19  20
ENDBRANCH   4  19
TORSDOF 8
ENDMDL
MODEL 4
REMARK VINA RESULT:    -7.342      3.175      8.398
REMARK INTER + INTRA:         -11.783
REMARK INTER:                 -10.288
REMARK INTRA:                  -1.495
REMARK UNBOUND:                -1.006
REMARK  Name = 
REMARK  8 active torsions:
REMARK  status: ('A' for Active; 'I' for Inactive)
REMARK    1  A    between atoms: C_2  and  C_3
REMARK    2  A    between atoms: C_8  and  C_9
REMARK    3  A    between atoms: C_9  and  N_10
REMARK    4  A    between atoms: N_10  and  C_11
REMARK    5  A    between atoms: C_11  and  C_12
REMARK    6  A    between atoms: C_15  and  C_16
REMARK    7  A    between atoms: C_16  and  N_17
REMARK    8  A    between atoms: C_18  and  C_20
REMARK                            x       y       z     vdW  Elec       q    Type
REMARK                         _______ _______ _______ _____ _____    ______ ____
ROOT
ATOM      1  C   UNL     1      48.570   7.598  16.524  0.00  0.00    +0.000 A 
ATOM      2  C   UNL     1      48.713   6.487  15.681  0.00  0.00    +0.000 A 
ATOM      3  C   UNL     1      48.625   6.627  14.292  0.00  0.00    +0.000 A 
ATOM      4  C   UNL     1      48.398   7.885  13.718  0.00  0.00    +0.000 A 
ATOM      5  C   UNL     1      48.217   8.989  14.561  0.00  0.00    +0.000 A 
ATOM      6  C   UNL     1      48.306   8.848  15.949  0.00  0.00    +0.000 A 
ENDROOT
BRANCH   1   7
ATOM      7  C   UNL     1      48.683   7.453  18.025  0.00  0.00    +0.000 C 
BRANCH   7   8
ATOM      8  N   UNL     1      47.732   6.503  18.606  0.00  0.00    +0.000 NA
ATOM      9  H   UNL     1      47.007   7.029  19.091  0.00  0.00    +0.000 HD
BRANCH   8  10
ATOM     10  C   UNL     1      48.355   5.585  19.568  0.00  0.00    +0.000 C 
BRANCH  10  16
ATOM     11  C   UNL     1      49.036   3.681  17.969  0.00  0.00    +0.000 A 
ATOM     12  C   UNL     1      50.046   2.912  17.361  0.00  0.00    +0.000 A 
ATOM     13  C   UNL     1      51.388   3.133  17.666  0.00  0.00    +0.000 A 
ATOM     14  C   UNL     1      51.735   4.120  18.581  0.00  0.00    +0.000 A 
ATOM     15  C   UNL     1      50.741   4.896  19.180  0.00  0.00    +0.000 A 
ATOM     16  C   UNL     1      49.380   4.701  18.875  0.00  0.00    +0.000 A 
BRANCH  11  18
ATOM     17  N   UNL     1      46.567   3.127  17.389  0.00  0.00    +0.000 NA
ATOM     18  C   UNL     1      47.673   3.373  17.641  0.00  0.00    +0.000 C 
ENDBRANCH  11  18
ENDBRANCH  10  16
ENDBRANCH   8  10
ENDBRANCH   7   8
ENDBRANCH   1   7
BRANCH   4  19
ATOM     19  C   UNL     1      48.328   8.048  12.222  0.00  0.00    +0.000 C 
BRANCH  19  20
ATOM     20  N   UNL     1      47.644   6.946  11.597  0.00  0.00    +0.000 N 
ATOM     21  C   UNL     1      46.279   6.953  11.462  0.00  0.00    +0.000 C 
ATOM     22  O   UNL     1      45.596   7.914  11.814  0.00  0.00    +0.000 OA
ATOM     23  H   UNL     1      48.153   6.071  11.511  0.00  0.00    +0.000 HD
BRANCH  21  24
ATOM     24  C   UNL     1      45.670   5.782  10.819  0.00  0.00    +0.000 A 
ATOM     25  C   UNL     1      45.829   5.591   9.452  0.00  0.00    +0.000 A 
ATOM     26  S   UNL     1      45.104   4.163   8.869  0.00  0.00    +0.000 S 
ATOM     27  C   UNL     1      44.506   3.773  10.413  0.00  0.00    +0.000 A 
ATOM     28  N   UNL     1      43.758   2.654  10.610  0.00  0.00    +0.000 NA
ATOM     29  C   UNL     1      43.345   2.497  11.823  0.00  0.00    +0.000 A 
ATOM     30  N   UNL     1      43.616   3.355  12.858  0.00  0.00    +0.000 N 
ATOM     31  C   UNL     1      44.389   4.482  12.713  0.00  0.00    +0.000 A 
ATOM     32  O   UNL     1      44.645   5.207  13.669  0.00  0.00    +0.000 OA
ATOM     33  C   UNL     1      44.871   4.711  11.364  0.00  0.00    +0.000 A 
ATOM     34  H   UNL     1      43.266   3.170  13.787  0.00  0.00    +0.000 HD
ENDBRANCH  21  24
ENDBRANCH  19  20
ENDBRANCH   4  19
TORSDOF 8
ENDMDL
MODEL 5
REMARK VINA RESULT:    -7.307      2.833      8.753
REMARK INTER + INTRA:         -11.730
REMARK INTER:                  -9.940
REMARK INTRA:                  -1.791
REMARK UNBOUND:                -1.006
REMARK  Name = 
REMARK  8 active torsions:
REMARK  status: ('A' for Active; 'I' for Inactive)
REMARK    1  A    between atoms: C_2  and  C_3
REMARK    2  A    between atoms: C_8  and  C_9
REMARK    3  A    between atoms: C_9  and  N_10
REMARK    4  A    between atoms: N_10  and  C_11
REMARK    5  A    between atoms: C_11  and  C_12
REMARK    6  A    between atoms: C_15  and  C_16
REMARK    7  A    between atoms: C_16  and  N_17
REMARK    8  A    between atoms: C_18  and  C_20
REMARK                            x       y       z     vdW  Elec       q    Type
REMARK                         _______ _______ _______ _____ _____    ______ ____
ROOT
ATOM      1  C   UNL     1      49.018   7.925  16.333  0.00  0.00    +0.000 A 
ATOM      2  C   UNL     1      48.275   9.000  15.825  0.00  0.00    +0.000 A 
ATOM      3  C   UNL     1      47.803   8.983  14.508  0.00  0.00    +0.000 A 
ATOM      4  C   UNL     1      48.060   7.886  13.675  0.00  0.00    +0.000 A 
ATOM      5  C   UNL     1      48.835   6.830  14.170  0.00  0.00    +0.000 A 
ATOM      6  C   UNL     1      49.306   6.846  15.487  0.00  0.00    +0.000 A 
ENDROOT
BRANCH   1   7
ATOM      7  C   UNL     1      49.514   7.932  17.762  0.00  0.00    +0.000 C 
BRANCH   7   8
ATOM      8  N   UNL     1      50.621   7.006  18.013  0.00  0.00    +0.000 NA
ATOM      9  H   UNL     1      50.862   6.546  17.136  0.00  0.00    +0.000 HD
BRANCH   8  10
ATOM     10  C   UNL     1      50.287   5.970  18.998  0.00  0.00    +0.000 C 
BRANCH  10  16
ATOM     11  C   UNL     1      48.821   4.112  17.977  0.00  0.00    +0.000 A 
ATOM     12  C   UNL     1      48.719   2.864  17.333  0.00  0.00    +0.000 A 
ATOM     13  C   UNL     1      49.861   2.118  17.046  0.00  0.00    +0.000 A 
ATOM     14  C   UNL     1      51.114   2.607  17.400  0.00  0.00    +0.000 A 
ATOM     15  C   UNL     1      51.225   3.848  18.027  0.00  0.00    +0.000 A 
ATOM     16  C   UNL     1      50.086   4.628  18.312  0.00  0.00    +0.000 A 
BRANCH  11  18
ATOM     17  N   UNL     1      46.610   5.361  18.514  0.00  0.00    +0.000 NA
ATOM     18  C   UNL     1      47.602   4.808  18.279  0.00  0.00    +0.000 C 
ENDBRANCH  11  18
ENDBRANCH  10  16
ENDBRANCH   8  10
ENDBRANCH   7   8
ENDBRANCH   1   7
BRANCH   4  19
ATOM     19  C   UNL     1      47.532   7.849  12.264  0.00  0.00    +0.000 C 
BRANCH  19  20
ATOM     20  N   UNL     1      46.869   6.603  11.977  0.00  0.00    +0.000 N 
ATOM     21  C   UNL     1      45.500   6.521  11.977  0.00  0.00    +0.000 C 
ATOM     22  O   UNL     1      44.790   7.507  12.166  0.00  0.00    +0.000 OA
ATOM     23  H   UNL     1      47.424   5.755  12.043  0.00  0.00    +0.000 HD
BRANCH  21  24
ATOM     24  C   UNL     1      44.915   5.208  11.680  0.00  0.00    +0.000 A 
ATOM     25  C   UNL     1      44.208   4.533  12.668  0.00  0.00    +0.000 A 
ATOM     26  S   UNL     1      43.553   3.047  12.151  0.00  0.00    +0.000 S 
ATOM     27  C   UNL     1      44.233   3.226  10.602  0.00  0.00    +0.000 A 
ATOM     28  N   UNL     1      44.067   2.267   9.652  0.00  0.00    +0.000 NA
ATOM     29  C   UNL     1      44.661   2.517   8.533  0.00  0.00    +0.000 A 
ATOM     30  N   UNL     1      45.402   3.641   8.277  0.00  0.00    +0.000 N 
ATOM     31  C   UNL     1      45.575   4.650   9.195  0.00  0.00    +0.000 A 
ATOM     32  O   UNL     1      46.211   5.661   8.920  0.00  0.00    +0.000 OA
ATOM     33  C   UNL     1      44.935   4.412  10.476  0.00  0.00    +0.000 A 
ATOM     34  H   UNL     1      45.838   3.779   7.376  0.00  0.00    +0.000 HD
ENDBRANCH  21  24
ENDBRANCH  19  20
ENDBRANCH   4  19
TORSDOF 8
ENDMDL
MODEL 6
REMARK VINA RESULT:    -7.219      2.752      3.911
REMARK INTER + INTRA:         -11.602
REMARK INTER:                 -10.294
REMARK INTRA:                  -1.308
REMARK UNBOUND:                -1.006
REMARK  Name = 
REMARK  8 active torsions:
REMARK  status: ('A' for Active; 'I' for Inactive)
REMARK    1  A    between atoms: C_2  and  C_3
REMARK    2  A    between atoms: C_8  and  C_9
REMARK    3  A    between atoms: C_9  and  N_10
REMARK    4  A    between atoms: N_10  and  C_11
REMARK    5  A    between atoms: C_11  and  C_12
REMARK    6  A    between atoms: C_15  and  C_16
REMARK    7  A    between atoms: C_16  and  N_17
REMARK    8  A    between atoms: C_18  and  C_20
REMARK                            x       y       z     vdW  Elec       q    Type
REMARK                         _______ _______ _______ _____ _____    ______ ____
ROOT
ATOM      1  C   UNL     1      46.057   5.758  12.018  0.00  0.00    +0.000 A 
ATOM      2  C   UNL     1      47.042   6.574  12.592  0.00  0.00    +0.000 A 
ATOM      3  C   UNL     1      47.621   6.239  13.820  0.00  0.00    +0.000 A 
ATOM      4  C   UNL     1      47.230   5.077  14.497  0.00  0.00    +0.000 A 
ATOM      5  C   UNL     1      46.218   4.282  13.945  0.00  0.00    +0.000 A 
ATOM      6  C   UNL     1      45.639   4.617  12.716  0.00  0.00    +0.000 A 
ENDROOT
BRANCH   1   7
ATOM      7  C   UNL     1      45.442   6.107  10.682  0.00  0.00    +0.000 C 
BRANCH   7   8
ATOM      8  N   UNL     1      46.184   5.590   9.530  0.00  0.00    +0.000 NA
ATOM      9  H   UNL     1      46.667   6.367   9.082  0.00  0.00    +0.000 HD
BRANCH   8  10
ATOM     10  C   UNL     1      45.318   4.950   8.532  0.00  0.00    +0.000 C 
BRANCH  10  16
ATOM     11  C   UNL     1      45.432   2.383   8.746  0.00  0.00    +0.000 A 
ATOM     12  C   UNL     1      45.981   1.156   8.329  0.00  0.00    +0.000 A 
ATOM     13  C   UNL     1      46.970   1.116   7.348  0.00  0.00    +0.000 A 
ATOM     14  C   UNL     1      47.423   2.299   6.775  0.00  0.00    +0.000 A 
ATOM     15  C   UNL     1      46.877   3.520   7.173  0.00  0.00    +0.000 A 
ATOM     16  C   UNL     1      45.864   3.583   8.151  0.00  0.00    +0.000 A 
BRANCH  11  18
ATOM     17  N   UNL     1      43.640   2.332  10.623  0.00  0.00    +0.000 NA
ATOM     18  C   UNL     1      44.447   2.354   9.789  0.00  0.00    +0.000 C 
ENDBRANCH  11  18
ENDBRANCH  10  16
ENDBRANCH   8  10
ENDBRANCH   7   8
ENDBRANCH   1   7
BRANCH   4  19
ATOM     19  C   UNL     1      47.868   4.696  15.808  0.00  0.00    +0.000 C 
BRANCH  19  20
ATOM     20  N   UNL     1      47.668   5.709  16.812  0.00  0.00    +0.000 N 
ATOM     21  C   UNL     1      48.676   6.044  17.681  0.00  0.00    +0.000 C 
ATOM     22  O   UNL     1      49.793   5.538  17.606  0.00  0.00    +0.000 OA
ATOM     23  H   UNL     1      46.710   5.966  17.029  0.00  0.00    +0.000 HD
BRANCH  21  24
ATOM     24  C   UNL     1      48.376   7.083  18.675  0.00  0.00    +0.000 A 
ATOM     25  C   UNL     1      48.326   6.747  20.022  0.00  0.00    +0.000 A 
ATOM     26  S   UNL     1      48.014   8.073  21.048  0.00  0.00    +0.000 S 
ATOM     27  C   UNL     1      47.886   9.135  19.724  0.00  0.00    +0.000 A 
ATOM     28  N   UNL     1      47.600  10.451  19.912  0.00  0.00    +0.000 NA
ATOM     29  C   UNL     1      47.501  11.134  18.820  0.00  0.00    +0.000 A 
ATOM     30  N   UNL     1      47.667  10.622  17.560  0.00  0.00    +0.000 N 
ATOM     31  C   UNL     1      47.983   9.305  17.323  0.00  0.00    +0.000 A 
ATOM     32  O   UNL     1      48.162   8.887  16.184  0.00  0.00    +0.000 OA
ATOM     33  C   UNL     1      48.095   8.490  18.518  0.00  0.00    +0.000 A 
ATOM     34  H   UNL     1      47.581  11.213  16.746  0.00  0.00    +0.000 HD
ENDBRANCH  21  24
ENDBRANCH  19  20
ENDBRANCH   4  19
TORSDOF 8
ENDMDL
MODEL 7
REMARK VINA RESULT:    -7.189      1.841      2.632
REMARK INTER + INTRA:         -11.557
REMARK INTER:                 -11.546
REMARK INTRA:                  -0.011
REMARK UNBOUND:                -1.006
REMARK  Name = 
REMARK  8 active torsions:
REMARK  status: ('A' for Active; 'I' for Inactive)
REMARK    1  A    between atoms: C_2  and  C_3
REMARK    2  A    between atoms: C_8  and  C_9
REMARK    3  A    between atoms: C_9  and  N_10
REMARK    4  A    between atoms: N_10  and  C_11
REMARK    5  A    between atoms: C_11  and  C_12
REMARK    6  A    between atoms: C_15  and  C_16
REMARK    7  A    between atoms: C_16  and  N_17
REMARK    8  A    between atoms: C_18  and  C_20
REMARK                            x       y       z     vdW  Elec       q    Type
REMARK                         _______ _______ _______ _____ _____    ______ ____
ROOT
ATOM      1  C   UNL     1      44.750   5.958  11.772  0.00  0.00    +0.000 A 
ATOM      2  C   UNL     1      45.316   7.235  11.880  0.00  0.00    +0.000 A 
ATOM      3  C   UNL     1      46.479   7.440  12.629  0.00  0.00    +0.000 A 
ATOM      4  C   UNL     1      47.102   6.369  13.282  0.00  0.00    +0.000 A 
ATOM      5  C   UNL     1      46.516   5.100  13.207  0.00  0.00    +0.000 A 
ATOM      6  C   UNL     1      45.354   4.894  12.456  0.00  0.00    +0.000 A 
ENDROOT
BRANCH   1   7
ATOM      7  C   UNL     1      43.503   5.729  10.947  0.00  0.00    +0.000 C 
BRANCH   7   8
ATOM      8  N   UNL     1      43.720   4.908   9.753  0.00  0.00    +0.000 NA
ATOM      9  H   UNL     1      43.654   3.927  10.019  0.00  0.00    +0.000 HD
BRANCH   8  10
ATOM     10  C   UNL     1      45.034   5.130   9.138  0.00  0.00    +0.000 C 
BRANCH  10  16
ATOM     11  C   UNL     1      45.195   2.559   9.034  0.00  0.00    +0.000 A 
ATOM     12  C   UNL     1      45.744   1.402   8.450  0.00  0.00    +0.000 A 
ATOM     13  C   UNL     1      46.694   1.501   7.435  0.00  0.00    +0.000 A 
ATOM     14  C   UNL     1      47.106   2.752   6.993  0.00  0.00    +0.000 A 
ATOM     15  C   UNL     1      46.558   3.905   7.557  0.00  0.00    +0.000 A 
ATOM     16  C   UNL     1      45.585   3.830   8.573  0.00  0.00    +0.000 A 
BRANCH  11  18
ATOM     17  N   UNL     1      43.480   2.248  10.958  0.00  0.00    +0.000 NA
ATOM     18  C   UNL     1      44.253   2.385  10.103  0.00  0.00    +0.000 C 
ENDBRANCH  11  18
ENDBRANCH  10  16
ENDBRANCH   8  10
ENDBRANCH   7   8
ENDBRANCH   1   7
BRANCH   4  19
ATOM     19  C   UNL     1      48.370   6.578  14.070  0.00  0.00    +0.000 C 
BRANCH  19  20
ATOM     20  N   UNL     1      48.098   6.810  15.465  0.00  0.00    +0.000 N 
ATOM     21  C   UNL     1      49.038   6.521  16.421  0.00  0.00    +0.000 C 
ATOM     22  O   UNL     1      50.158   6.108  16.126  0.00  0.00    +0.000 OA
ATOM     23  H   UNL     1      47.126   6.932  15.735  0.00  0.00    +0.000 HD
BRANCH  21  24
ATOM     24  C   UNL     1      48.667   6.785  17.817  0.00  0.00    +0.000 A 
ATOM     25  C   UNL     1      48.353   8.081  18.208  0.00  0.00    +0.000 A 
ATOM     26  S   UNL     1      47.898   8.212  19.846  0.00  0.00    +0.000 S 
ATOM     27  C   UNL     1      48.153   6.550  20.104  0.00  0.00    +0.000 A 
ATOM     28  N   UNL     1      47.962   5.998  21.333  0.00  0.00    +0.000 NA
ATOM     29  C   UNL     1      48.222   4.734  21.394  0.00  0.00    +0.000 A 
ATOM     30  N   UNL     1      48.650   3.972  20.338  0.00  0.00    +0.000 N 
ATOM     31  C   UNL     1      48.831   4.480  19.073  0.00  0.00    +0.000 A 
ATOM     32  O   UNL     1      49.178   3.763  18.142  0.00  0.00    +0.000 OA
ATOM     33  C   UNL     1      48.563   5.901  18.952  0.00  0.00    +0.000 A 
ATOM     34  H   UNL     1      48.831   2.985  20.452  0.00  0.00    +0.000 HD
ENDBRANCH  21  24
ENDBRANCH  19  20
ENDBRANCH   4  19
TORSDOF 8
ENDMDL
MODEL 8
REMARK VINA RESULT:    -7.150      3.681      8.091
REMARK INTER + INTRA:         -11.500
REMARK INTER:                  -9.193
REMARK INTRA:                  -2.307
REMARK UNBOUND:                -1.006
REMARK  Name = 
REMARK  8 active torsions:
REMARK  status: ('A' for Active; 'I' for Inactive)
REMARK    1  A    between atoms: C_2  and  C_3
REMARK    2  A    between atoms: C_8  and  C_9
REMARK    3  A    between atoms: C_9  and  N_10
REMARK    4  A    between atoms: N_10  and  C_11
REMARK    5  A    between atoms: C_11  and  C_12
REMARK    6  A    between atoms: C_15  and  C_16
REMARK    7  A    between atoms: C_16  and  N_17
REMARK    8  A    between atoms: C_18  and  C_20
REMARK                            x       y       z     vdW  Elec       q    Type
REMARK                         _______ _______ _______ _____ _____    ______ ____
ROOT
ATOM      1  C   UNL     1      51.045   7.183  17.377  0.00  0.00    +0.000 A 
ATOM      2  C   UNL     1      50.294   8.249  17.891  0.00  0.00    +0.000 A 
ATOM      3  C   UNL     1      49.371   8.926  17.088  0.00  0.00    +0.000 A 
ATOM      4  C   UNL     1      49.175   8.545  15.754  0.00  0.00    +0.000 A 
ATOM      5  C   UNL     1      49.952   7.506  15.228  0.00  0.00    +0.000 A 
ATOM      6  C   UNL     1      50.875   6.828  16.031  0.00  0.00    +0.000 A 
ENDROOT
BRANCH   1   7
ATOM      7  C   UNL     1      52.031   6.436  18.247  0.00  0.00    +0.000 C 
BRANCH   7   8
ATOM      8  N   UNL     1      51.932   4.978  18.145  0.00  0.00    +0.000 NA
ATOM      9  H   UNL     1      51.660   4.739  17.193  0.00  0.00    +0.000 HD
BRANCH   8  10
ATOM     10  C   UNL     1      50.939   4.407  19.063  0.00  0.00    +0.000 C 
BRANCH  10  16
ATOM     11  C   UNL     1      49.460   2.986  17.502  0.00  0.00    +0.000 A 
ATOM     12  C   UNL     1      48.223   2.777  16.863  0.00  0.00    +0.000 A 
ATOM     13  C   UNL     1      47.180   3.688  17.020  0.00  0.00    +0.000 A 
ATOM     14  C   UNL     1      47.360   4.816  17.811  0.00  0.00    +0.000 A 
ATOM     15  C   UNL     1      48.579   5.025  18.458  0.00  0.00    +0.000 A 
ATOM     16  C   UNL     1      49.642   4.110  18.328  0.00  0.00    +0.000 A 
BRANCH  11  18
ATOM     17  N   UNL     1      51.340   1.247  17.080  0.00  0.00    +0.000 NA
ATOM     18  C   UNL     1      50.504   2.030  17.264  0.00  0.00    +0.000 C 
ENDBRANCH  11  18
ENDBRANCH  10  16
ENDBRANCH   8  10
ENDBRANCH   7   8
ENDBRANCH   1   7
BRANCH   4  19
ATOM     19  C   UNL     1      48.163   9.253  14.891  0.00  0.00    +0.000 C 
BRANCH  19  20
ATOM     20  N   UNL     1      47.191   8.337  14.351  0.00  0.00    +0.000 N 
ATOM     21  C   UNL     1      47.080   8.150  12.996  0.00  0.00    +0.000 C 
ATOM     22  O   UNL     1      47.833   8.708  12.200  0.00  0.00    +0.000 OA
ATOM     23  H   UNL     1      46.432   8.051  14.962  0.00  0.00    +0.000 HD
BRANCH  21  24
ATOM     24  C   UNL     1      46.056   7.203  12.540  0.00  0.00    +0.000 A 
ATOM     25  C   UNL     1      44.950   7.673  11.842  0.00  0.00    +0.000 A 
ATOM     26  S   UNL     1      43.880   6.443  11.342  0.00  0.00    +0.000 S 
ATOM     27  C   UNL     1      44.831   5.242  12.083  0.00  0.00    +0.000 A 
ATOM     28  N   UNL     1      44.455   3.935  12.047  0.00  0.00    +0.000 NA
ATOM     29  C   UNL     1      45.251   3.136  12.676  0.00  0.00    +0.000 A 
ATOM     30  N   UNL     1      46.390   3.524  13.332  0.00  0.00    +0.000 N 
ATOM     31  C   UNL     1      46.824   4.828  13.372  0.00  0.00    +0.000 A 
ATOM     32  O   UNL     1      47.869   5.136  13.935  0.00  0.00    +0.000 OA
ATOM     33  C   UNL     1      45.957   5.770  12.689  0.00  0.00    +0.000 A 
ATOM     34  H   UNL     1      46.974   2.846  13.801  0.00  0.00    +0.000 HD
ENDBRANCH  21  24
ENDBRANCH  19  20
ENDBRANCH   4  19
TORSDOF 8
ENDMDL
MODEL 9
REMARK VINA RESULT:    -7.072      2.344      3.325
REMARK INTER + INTRA:         -11.386
REMARK INTER:                 -10.336
REMARK INTRA:                  -1.050
REMARK UNBOUND:                -1.006
REMARK  Name = 
REMARK  8 active torsions:
REMARK  status: ('A' for Active; 'I' for Inactive)
REMARK    1  A    between atoms: C_2  and  C_3
REMARK    2  A    between atoms: C_8  and  C_9
REMARK    3  A    between atoms: C_9  and  N_10
REMARK    4  A    between atoms: N_10  and  C_11
REMARK    5  A    between atoms: C_11  and  C_12
REMARK    6  A    between atoms: C_15  and  C_16
REMARK    7  A    between atoms: C_16  and  N_17
REMARK    8  A    between atoms: C_18  and  C_20
REMARK                            x       y       z     vdW  Elec       q    Type
REMARK                         _______ _______ _______ _____ _____    ______ ____
ROOT
ATOM      1  C   UNL     1      46.227   6.203  12.782  0.00  0.00    +0.000 A 
ATOM      2  C   UNL     1      46.466   7.583  12.849  0.00  0.00    +0.000 A 
ATOM      3  C   UNL     1      47.433   8.099  13.718  0.00  0.00    +0.000 A 
ATOM      4  C   UNL     1      48.185   7.244  14.534  0.00  0.00    +0.000 A 
ATOM      5  C   UNL     1      47.920   5.870  14.496  0.00  0.00    +0.000 A 
ATOM      6  C   UNL     1      46.954   5.353  13.627  0.00  0.00    +0.000 A 
ENDROOT
BRANCH   1   7
ATOM      7  C   UNL     1      45.195   5.639  11.831  0.00  0.00    +0.000 C 
BRANCH   7   8
ATOM      8  N   UNL     1      45.477   5.906  10.419  0.00  0.00    +0.000 NA
ATOM      9  H   UNL     1      45.418   6.911  10.263  0.00  0.00    +0.000 HD
BRANCH   8  10
ATOM     10  C   UNL     1      44.531   5.244   9.512  0.00  0.00    +0.000 C 
BRANCH  10  16
ATOM     11  C   UNL     1      44.825   2.685   9.433  0.00  0.00    +0.000 A 
ATOM     12  C   UNL     1      45.421   1.551   8.850  0.00  0.00    +0.000 A 
ATOM     13  C   UNL     1      46.341   1.687   7.811  0.00  0.00    +0.000 A 
ATOM     14  C   UNL     1      46.676   2.953   7.346  0.00  0.00    +0.000 A 
ATOM     15  C   UNL     1      46.081   4.082   7.909  0.00  0.00    +0.000 A 
ATOM     16  C   UNL     1      45.136   3.968   8.949  0.00  0.00    +0.000 A 
BRANCH  11  18
ATOM     17  N   UNL     1      43.185   2.290  11.407  0.00  0.00    +0.000 NA
ATOM     18  C   UNL     1      43.918   2.475  10.526  0.00  0.00    +0.000 C 
ENDBRANCH  11  18
ENDBRANCH  10  16
ENDBRANCH   8  10
ENDBRANCH   7   8
ENDBRANCH   1   7
BRANCH   4  19
ATOM     19  C   UNL     1      49.247   7.791  15.452  0.00  0.00    +0.000 C 
BRANCH  19  20
ATOM     20  N   UNL     1      50.182   6.771  15.852  0.00  0.00    +0.000 N 
ATOM     21  C   UNL     1      50.252   6.357  17.158  0.00  0.00    +0.000 C 
ATOM     22  O   UNL     1      49.493   6.794  18.020  0.00  0.00    +0.000 OA
ATOM     23  H   UNL     1      50.950   6.570  15.218  0.00  0.00    +0.000 HD
BRANCH  21  24
ATOM     24  C   UNL     1      51.241   5.318  17.471  0.00  0.00    +0.000 A 
ATOM     25  C   UNL     1      52.521   5.687  17.868  0.00  0.00    +0.000 A 
ATOM     26  S   UNL     1      53.532   4.366  18.240  0.00  0.00    +0.000 S 
ATOM     27  C   UNL     1      52.312   3.251  17.836  0.00  0.00    +0.000 A 
ATOM     28  N   UNL     1      52.539   1.912  17.913  0.00  0.00    +0.000 NA
ATOM     29  C   UNL     1      51.538   1.181  17.548  0.00  0.00    +0.000 A 
ATOM     30  N   UNL     1      50.332   1.668  17.118  0.00  0.00    +0.000 N 
ATOM     31  C   UNL     1      50.048   3.011  17.050  0.00  0.00    +0.000 A 
ATOM     32  O   UNL     1      48.944   3.413  16.698  0.00  0.00    +0.000 OA
ATOM     33  C   UNL     1      51.144   3.878  17.439  0.00  0.00    +0.000 A 
ATOM     34  H   UNL     1      49.586   1.041  16.851  0.00  0.00    +0.000 HD
ENDBRANCH  21  24
ENDBRANCH  19  20
ENDBRANCH   4  19
TORSDOF 8
ENDMDL
