MODEL 1
REMARK VINA RESULT:    -7.531      0.000      0.000
REMARK INTER + INTRA:          -9.969
REMARK INTER:                  -9.292
REMARK INTRA:                  -0.677
REMARK UNBOUND:                -0.677
REMARK  Name = 
REMARK  4 active torsions:
REMARK  status: ('A' for Active; 'I' for Inactive)
REMARK    1  A    between atoms: C_2  and  C_3
REMARK    2  A    between atoms: C_6  and  C_7
REMARK    3  A    between atoms: C_7  and  N_8
REMARK    4  A    between atoms: C_9  and  C_11
REMARK                            x       y       z     vdW  Elec       q    Type
REMARK                         _______ _______ _______ _____ _____    ______ ____
ROOT
ATOM      1  N   UNL     1      44.519   5.170  10.625  0.00  0.00    +0.000 N 
ATOM      2  C   UNL     1      43.800   6.151  11.260  0.00  0.00    +0.000 C 
ATOM      3  O   UNL     1      42.583   6.086  11.435  0.00  0.00    +0.000 OA
ATOM      4  H   UNL     1      45.345   5.502  10.139  0.00  0.00    +0.000 HD
ENDROOT
BRANCH   2   5
ATOM      5  C   UNL     1      44.595   7.266  11.785  0.00  0.00    +0.000 A 
ATOM      6  C   UNL     1      44.304   8.569  11.409  0.00  0.00    +0.000 A 
ATOM      7  S   UNL     1      45.323   9.729  12.136  0.00  0.00    +0.000 S 
ATOM      8  C   UNL     1      46.206   8.526  12.955  0.00  0.00    +0.000 A 
ATOM      9  N   UNL     1      47.264   8.844  13.750  0.00  0.00    +0.000 NA
ATOM     10  C   UNL     1      47.855   7.829  14.287  0.00  0.00    +0.000 A 
ATOM     11  N   UNL     1      47.477   6.521  14.112  0.00  0.00    +0.000 N 
ATOM     12  C   UNL     1      46.401   6.159  13.345  0.00  0.00    +0.000 A 
ATOM     13  O   UNL     1      46.050   4.981  13.249  0.00  0.00    +0.000 OA
ATOM     14  C   UNL     1      45.715   7.259  12.697  0.00  0.00    +0.000 A 
ATOM     15  H   UNL     1      47.973   5.778  14.578  0.00  0.00    +0.000 HD
ENDBRANCH   2   5
BRANCH   1  16
ATOM     16  C   UNL     1      43.894   3.982  10.083  0.00  0.00    +0.000 C 
BRANCH  16  20
ATOM     17  C   UNL     1      47.127   2.636   7.413  0.00  0.00    +0.000 C 
ATOM     18  C   UNL     1      46.325   3.867   6.983  0.00  0.00    +0.000 C 
ATOM     19  C   UNL     1      45.519   4.435   8.150  0.00  0.00    +0.000 C 
ATOM     20  C   UNL     1      44.633   3.393   8.858  0.00  0.00    +0.000 C 
ATOM     21  C   UNL     1      45.436   2.137   9.225  0.00  0.00    +0.000 C 
ATOM     22  C   UNL     1      46.199   1.581   8.021  0.00  0.00    +0.000 C 
BRANCH  17  24
ATOM     23  N   UNL     1      48.457   1.656   5.369  0.00  0.00    +0.000 NA
ATOM     24  C   UNL     1      47.874   2.086   6.274  0.00  0.00    +0.000 C 
ENDBRANCH  17  24
ENDBRANCH  16  20
ENDBRANCH   1  16
TORSDOF 4
ENDMDL
MODEL 2
REMARK VINA RESULT:    -7.186      1.971      2.950
REMARK INTER + INTRA:          -9.543
REMARK INTER:                  -8.854
REMARK INTRA:                  -0.689
REMARK UNBOUND:                -0.677
REMARK  Name = 
REMARK  4 active torsions:
REMARK  status: ('A' for Active; 'I' for Inactive)
REMARK    1  A    between atoms: C_2  and  C_3
REMARK    2  A    between atoms: C_6  and  C_7
REMARK    3  A    between atoms: C_7  and  N_8
REMARK    4  A    between atoms: C_9  and  C_11
REMARK                            x       y       z     vdW  Elec       q    Type
REMARK                         _______ _______ _______ _____ _____    ______ ____
ROOT
ATOM      1  N   UNL     1      44.314   6.205  10.896  0.00  0.00    +0.000 N 
ATOM      2  C   UNL     1      44.637   6.619  12.164  0.00  0.00    +0.000 C 
ATOM      3  O   UNL     1      44.307   6.002  13.176  0.00  0.00    +0.000 OA
ATOM      4  H   UNL     1      44.211   6.957  10.222  0.00  0.00    +0.000 HD
ENDROOT
BRANCH   2   5
ATOM      5  C   UNL     1      45.471   7.824  12.233  0.00  0.00    +0.000 A 
ATOM      6  C   UNL     1      46.731   7.769  12.810  0.00  0.00    +0.000 A 
ATOM      7  S   UNL     1      47.557   9.262  12.780  0.00  0.00    +0.000 S 
ATOM      8  C   UNL     1      46.247  10.038  12.019  0.00  0.00    +0.000 A 
ATOM      9  N   UNL     1      46.287  11.366  11.725  0.00  0.00    +0.000 NA
ATOM     10  C   UNL     1      45.213  11.825  11.173  0.00  0.00    +0.000 A 
ATOM     11  N   UNL     1      44.104  11.073  10.875  0.00  0.00    +0.000 N 
ATOM     12  C   UNL     1      44.034   9.728  11.126  0.00  0.00    +0.000 A 
ATOM     13  O   UNL     1      43.047   9.066  10.797  0.00  0.00    +0.000 OA
ATOM     14  C   UNL     1      45.203   9.165  11.769  0.00  0.00    +0.000 A 
ATOM     15  H   UNL     1      43.306  11.493  10.424  0.00  0.00    +0.000 HD
ENDBRANCH   2   5
BRANCH   1  16
ATOM     16  C   UNL     1      43.531   5.013  10.648  0.00  0.00    +0.000 C 
BRANCH  16  20
ATOM     17  C   UNL     1      46.225   2.325   8.434  0.00  0.00    +0.000 C 
ATOM     18  C   UNL     1      46.063   3.752   7.903  0.00  0.00    +0.000 C 
ATOM     19  C   UNL     1      45.424   4.659   8.953  0.00  0.00    +0.000 C 
ATOM     20  C   UNL     1      44.106   4.111   9.531  0.00  0.00    +0.000 C 
ATOM     21  C   UNL     1      44.268   2.657   9.999  0.00  0.00    +0.000 C 
ATOM     22  C   UNL     1      44.876   1.775   8.908  0.00  0.00    +0.000 C 
BRANCH  17  24
ATOM     23  N   UNL     1      47.274   0.780   6.585  0.00  0.00    +0.000 NA
ATOM     24  C   UNL     1      46.813   1.458   7.404  0.00  0.00    +0.000 C 
ENDBRANCH  17  24
ENDBRANCH  16  20
ENDBRANCH   1  16
TORSDOF 4
ENDMDL
MODEL 3
REMARK VINA RESULT:    -7.059      1.540      2.321
REMARK INTER + INTRA:          -9.386
REMARK INTER:                  -8.894
REMARK INTRA:                  -0.493
REMARK UNBOUND:                -0.677
REMARK  Name = 
REMARK  4 active torsions:
REMARK  status: ('A' for Active; 'I' for Inactive)
REMARK    1  A    between atoms: C_2  and  C_3
REMARK    2  A    between atoms: C_6  and  C_7
REMARK    3  A    between atoms: C_7  and  N_8
REMARK    4  A    between atoms: C_9  and  C_11
REMARK                            x       y       z     vdW  Elec       q    Type
REMARK                         _______ _______ _______ _____ _____    ______ ____
ROOT
ATOM      1  N   UNL     1      44.912   5.032  11.147  0.00  0.00    +0.000 N 
ATOM      2  C   UNL     1      45.247   4.814  12.459  0.00  0.00    +0.000 C 
ATOM      3  O   UNL     1      44.843   3.847  13.104  0.00  0.00    +0.000 OA
ATOM      4  H   UNL     1      44.890   6.010  10.875  0.00  0.00    +0.000 HD
ENDROOT
BRANCH   2   5
ATOM      5  C   UNL     1      46.184   5.786  13.033  0.00  0.00    +0.000 A 
ATOM      6  C   UNL     1      47.173   5.368  13.910  0.00  0.00    +0.000 A 
ATOM      7  S   UNL     1      48.177   6.635  14.456  0.00  0.00    +0.000 S 
ATOM      8  C   UNL     1      47.306   7.790  13.559  0.00  0.00    +0.000 A 
ATOM      9  N   UNL     1      47.632   9.110  13.602  0.00  0.00    +0.000 NA
ATOM     10  C   UNL     1      46.869   9.874  12.892  0.00  0.00    +0.000 A 
ATOM     11  N   UNL     1      45.813   9.436  12.132  0.00  0.00    +0.000 N 
ATOM     12  C   UNL     1      45.469   8.113  12.038  0.00  0.00    +0.000 A 
ATOM     13  O   UNL     1      44.550   7.741  11.304  0.00  0.00    +0.000 OA
ATOM     14  C   UNL     1      46.278   7.214  12.835  0.00  0.00    +0.000 A 
ATOM     15  H   UNL     1      45.270  10.087  11.586  0.00  0.00    +0.000 HD
ENDBRANCH   2   5
BRANCH   1  16
ATOM     16  C   UNL     1      44.030   4.147  10.417  0.00  0.00    +0.000 C 
BRANCH  16  20
ATOM     17  C   UNL     1      47.011   2.618   7.560  0.00  0.00    +0.000 C 
ATOM     18  C   UNL     1      46.343   3.955   7.231  0.00  0.00    +0.000 C 
ATOM     19  C   UNL     1      45.640   4.535   8.457  0.00  0.00    +0.000 C 
ATOM     20  C   UNL     1      44.661   3.557   9.133  0.00  0.00    +0.000 C 
ATOM     21  C   UNL     1      45.327   2.198   9.398  0.00  0.00    +0.000 C 
ATOM     22  C   UNL     1      45.987   1.637   8.138  0.00  0.00    +0.000 C 
BRANCH  17  24
ATOM     23  N   UNL     1      48.169   1.628   5.418  0.00  0.00    +0.000 NA
ATOM     24  C   UNL     1      47.658   2.060   6.365  0.00  0.00    +0.000 C 
ENDBRANCH  17  24
ENDBRANCH  16  20
ENDBRANCH   1  16
TORSDOF 4
ENDMDL
MODEL 4
REMARK VINA RESULT:    -6.741      2.562      3.318
REMARK INTER + INTRA:          -8.994
REMARK INTER:                  -8.553
REMARK INTRA:                  -0.441
REMARK UNBOUND:                -0.677
REMARK  Name = 
REMARK  4 active torsions:
REMARK  status: ('A' for Active; 'I' for Inactive)
REMARK    1  A    between atoms: C_2  and  C_3
REMARK    2  A    between atoms: C_6  and  C_7
REMARK    3  A    between atoms: C_7  and  N_8
REMARK    4  A    between atoms: C_9  and  C_11
REMARK                            x       y       z     vdW  Elec       q    Type
REMARK                         _______ _______ _______ _____ _____    ______ ____
ROOT
ATOM      1  N   UNL     1      45.112   5.144  12.760  0.00  0.00    +0.000 N 
ATOM      2  C   UNL     1      46.171   4.484  13.331  0.00  0.00    +0.000 C 
ATOM      3  O   UNL     1      46.298   3.260  13.294  0.00  0.00    +0.000 OA
ATOM      4  H   UNL     1      44.860   6.012  13.220  0.00  0.00    +0.000 HD
ENDROOT
BRANCH   2   5
ATOM      5  C   UNL     1      47.189   5.347  13.938  0.00  0.00    +0.000 A 
ATOM      6  C   UNL     1      47.745   6.388  13.210  0.00  0.00    +0.000 A 
ATOM      7  S   UNL     1      48.895   7.293  14.089  0.00  0.00    +0.000 S 
ATOM      8  C   UNL     1      48.708   6.306  15.463  0.00  0.00    +0.000 A 
ATOM      9  N   UNL     1      49.439   6.519  16.591  0.00  0.00    +0.000 NA
ATOM     10  C   UNL     1      49.212   5.678  17.544  0.00  0.00    +0.000 A 
ATOM     11  N   UNL     1      48.309   4.646  17.478  0.00  0.00    +0.000 N 
ATOM     12  C   UNL     1      47.532   4.414  16.373  0.00  0.00    +0.000 A 
ATOM     13  O   UNL     1      46.688   3.514  16.361  0.00  0.00    +0.000 OA
ATOM     14  C   UNL     1      47.764   5.315  15.263  0.00  0.00    +0.000 A 
ATOM     15  H   UNL     1      48.167   4.037  18.268  0.00  0.00    +0.000 HD
ENDBRANCH   2   5
BRANCH   1  16
ATOM     16  C   UNL     1      44.039   4.445  12.085  0.00  0.00    +0.000 C 
BRANCH  16  20
ATOM     17  C   UNL     1      46.012   3.347   8.305  0.00  0.00    +0.000 C 
ATOM     18  C   UNL     1      45.781   4.837   8.571  0.00  0.00    +0.000 C 
ATOM     19  C   UNL     1      45.451   5.088  10.041  0.00  0.00    +0.000 C 
ATOM     20  C   UNL     1      44.292   4.225  10.575  0.00  0.00    +0.000 C 
ATOM     21  C   UNL     1      44.507   2.740  10.243  0.00  0.00    +0.000 C 
ATOM     22  C   UNL     1      44.799   2.529   8.757  0.00  0.00    +0.000 C 
BRANCH  17  24
ATOM     23  N   UNL     1      46.533   2.930   5.763  0.00  0.00    +0.000 NA
ATOM     24  C   UNL     1      46.301   3.118   6.883  0.00  0.00    +0.000 C 
ENDBRANCH  17  24
ENDBRANCH  16  20
ENDBRANCH   1  16
TORSDOF 4
ENDMDL
MODEL 5
REMARK VINA RESULT:    -6.574      4.240      7.820
REMARK INTER + INTRA:          -8.788
REMARK INTER:                  -8.222
REMARK INTRA:                  -0.567
REMARK UNBOUND:                -0.677
REMARK  Name = 
REMARK  4 active torsions:
REMARK  status: ('A' for Active; 'I' for Inactive)
REMARK    1  A    between atoms: C_2  and  C_3
REMARK    2  A    between atoms: C_6  and  C_7
REMARK    3  A    between atoms: C_7  and  N_8
REMARK    4  A    between atoms: C_9  and  C_11
REMARK                            x       y       z     vdW  Elec       q    Type
REMARK                         _______ _______ _______ _____ _____    ______ ____
ROOT
ATOM      1  N   UNL     1      46.823   4.487  15.830  0.00  0.00    +0.000 N 
ATOM      2  C   UNL     1      46.874   4.208  14.488  0.00  0.00    +0.000 C 
ATOM      3  O   UNL     1      47.241   3.122  14.041  0.00  0.00    +0.000 OA
ATOM      4  H   UNL     1      46.968   5.464  16.063  0.00  0.00    +0.000 HD
ENDROOT
BRANCH   2   5
ATOM      5  C   UNL     1      46.392   5.280  13.610  0.00  0.00    +0.000 A 
ATOM      6  C   UNL     1      47.174   6.402  13.384  0.00  0.00    +0.000 A 
ATOM      7  S   UNL     1      46.456   7.528  12.322  0.00  0.00    +0.000 S 
ATOM      8  C   UNL     1      45.062   6.566  12.151  0.00  0.00    +0.000 A 
ATOM      9  N   UNL     1      44.015   6.970  11.381  0.00  0.00    +0.000 NA
ATOM     10  C   UNL     1      43.015   6.152  11.364  0.00  0.00    +0.000 A 
ATOM     11  N   UNL     1      42.971   4.958  12.039  0.00  0.00    +0.000 N 
ATOM     12  C   UNL     1      44.014   4.500  12.800  0.00  0.00    +0.000 A 
ATOM     13  O   UNL     1      43.969   3.397  13.351  0.00  0.00    +0.000 OA
ATOM     14  C   UNL     1      45.154   5.391  12.874  0.00  0.00    +0.000 A 
ATOM     15  H   UNL     1      42.164   4.357  11.966  0.00  0.00    +0.000 HD
ENDBRANCH   2   5
BRANCH   1  16
ATOM     16  C   UNL     1      47.224   3.526  16.835  0.00  0.00    +0.000 C 
BRANCH  16  20
ATOM     17  C   UNL     1      51.452   4.607  17.419  0.00  0.00    +0.000 C 
ATOM     18  C   UNL     1      51.030   3.185  17.799  0.00  0.00    +0.000 C 
ATOM     19  C   UNL     1      49.668   2.837  17.201  0.00  0.00    +0.000 C 
ATOM     20  C   UNL     1      48.568   3.866  17.522  0.00  0.00    +0.000 C 
ATOM     21  C   UNL     1      49.030   5.294  17.197  0.00  0.00    +0.000 C 
ATOM     22  C   UNL     1      50.379   5.613  17.843  0.00  0.00    +0.000 C 
BRANCH  17  24
ATOM     23  N   UNL     1      53.775   5.202  18.495  0.00  0.00    +0.000 NA
ATOM     24  C   UNL     1      52.750   4.936  18.024  0.00  0.00    +0.000 C 
ENDBRANCH  17  24
ENDBRANCH  16  20
ENDBRANCH   1  16
TORSDOF 4
ENDMDL
MODEL 6
REMARK VINA RESULT:    -6.571      4.589      7.811
REMARK INTER + INTRA:          -8.785
REMARK INTER:                  -8.135
REMARK INTRA:                  -0.649
REMARK UNBOUND:                -0.677
REMARK  Name = 
REMARK  4 active torsions:
REMARK  status: ('A' for Active; 'I' for Inactive)
REMARK    1  A    between atoms: C_2  and  C_3
REMARK    2  A    between atoms: C_6  and  C_7
REMARK    3  A    between atoms: C_7  and  N_8
REMARK    4  A    between atoms: C_9  and  C_11
REMARK                            x       y       z     vdW  Elec       q    Type
REMARK                         _______ _______ _______ _____ _____    ______ ____
ROOT
ATOM      1  N   UNL     1      47.723   5.672  15.827  0.00  0.00    +0.000 N 
ATOM      2  C   UNL     1      48.104   6.198  14.618  0.00  0.00    +0.000 C 
ATOM      3  O   UNL     1      49.233   6.637  14.403  0.00  0.00    +0.000 OA
ATOM      4  H   UNL     1      46.737   5.780  16.041  0.00  0.00    +0.000 HD
ENDROOT
BRANCH   2   5
ATOM      5  C   UNL     1      47.084   6.141  13.565  0.00  0.00    +0.000 A 
ATOM      6  C   UNL     1      46.652   7.305  12.949  0.00  0.00    +0.000 A 
ATOM      7  S   UNL     1      45.480   7.037  11.737  0.00  0.00    +0.000 S 
ATOM      8  C   UNL     1      45.491   5.358  12.016  0.00  0.00    +0.000 A 
ATOM      9  N   UNL     1      44.676   4.521  11.318  0.00  0.00    +0.000 NA
ATOM     10  C   UNL     1      44.773   3.277  11.653  0.00  0.00    +0.000 A 
ATOM     11  N   UNL     1      45.621   2.790  12.616  0.00  0.00    +0.000 N 
ATOM     12  C   UNL     1      46.478   3.593  13.321  0.00  0.00    +0.000 A 
ATOM     13  O   UNL     1      47.269   3.122  14.142  0.00  0.00    +0.000 OA
ATOM     14  C   UNL     1      46.394   5.004  13.002  0.00  0.00    +0.000 A 
ATOM     15  H   UNL     1      45.659   1.802  12.813  0.00  0.00    +0.000 HD
ENDBRANCH   2   5
BRANCH   1  16
ATOM     16  C   UNL     1      48.620   5.613  16.962  0.00  0.00    +0.000 C 
BRANCH  16  20
ATOM     17  C   UNL     1      51.533   2.472  17.978  0.00  0.00    +0.000 C 
ATOM     18  C   UNL     1      52.087   3.840  17.571  0.00  0.00    +0.000 C 
ATOM     19  C   UNL     1      50.998   4.911  17.620  0.00  0.00    +0.000 C 
ATOM     20  C   UNL     1      49.731   4.546  16.824  0.00  0.00    +0.000 C 
ATOM     21  C   UNL     1      49.225   3.144  17.196  0.00  0.00    +0.000 C 
ATOM     22  C   UNL     1      50.336   2.098  17.099  0.00  0.00    +0.000 C 
BRANCH  17  24
ATOM     23  N   UNL     1      53.418   0.647  17.829  0.00  0.00    +0.000 NA
ATOM     24  C   UNL     1      52.584   1.449  17.898  0.00  0.00    +0.000 C 
ENDBRANCH  17  24
ENDBRANCH  16  20
ENDBRANCH   1  16
TORSDOF 4
ENDMDL
MODEL 7
REMARK VINA RESULT:    -6.259      2.810      3.809
REMARK INTER + INTRA:          -8.399
REMARK INTER:                  -7.901
REMARK INTRA:                  -0.498
REMARK UNBOUND:                -0.677
REMARK  Name = 
REMARK  4 active torsions:
REMARK  status: ('A' for Active; 'I' for Inactive)
REMARK    1  A    between atoms: C_2  and  C_3
REMARK    2  A    between atoms: C_6  and  C_7
REMARK    3  A    between atoms: C_7  and  N_8
REMARK    4  A    between atoms: C_9  and  C_11
REMARK                            x       y       z     vdW  Elec       q    Type
REMARK                         _______ _______ _______ _____ _____    ______ ____
ROOT
ATOM      1  N   UNL     1      45.465   5.136  13.398  0.00  0.00    +0.000 N 
ATOM      2  C   UNL     1      46.423   4.323  13.949  0.00  0.00    +0.000 C 
ATOM      3  O   UNL     1      46.602   3.159  13.592  0.00  0.00    +0.000 OA
ATOM      4  H   UNL     1      45.098   5.841  14.028  0.00  0.00    +0.000 HD
ENDROOT
BRANCH   2   5
ATOM      5  C   UNL     1      47.275   4.960  14.959  0.00  0.00    +0.000 A 
ATOM      6  C   UNL     1      47.300   4.474  16.258  0.00  0.00    +0.000 A 
ATOM      7  S   UNL     1      48.364   5.331  17.281  0.00  0.00    +0.000 S 
ATOM      8  C   UNL     1      48.805   6.395  16.029  0.00  0.00    +0.000 A 
ATOM      9  N   UNL     1      49.683   7.414  16.244  0.00  0.00    +0.000 NA
ATOM     10  C   UNL     1      49.905   8.157  15.212  0.00  0.00    +0.000 A 
ATOM     11  N   UNL     1      49.337   7.969  13.976  0.00  0.00    +0.000 N 
ATOM     12  C   UNL     1      48.473   6.940  13.709  0.00  0.00    +0.000 A 
ATOM     13  O   UNL     1      48.020   6.761  12.575  0.00  0.00    +0.000 OA
ATOM     14  C   UNL     1      48.169   6.088  14.841  0.00  0.00    +0.000 A 
ATOM     15  H   UNL     1      49.570   8.578  13.207  0.00  0.00    +0.000 HD
ENDBRANCH   2   5
BRANCH   1  16
ATOM     16  C   UNL     1      44.566   4.678  12.360  0.00  0.00    +0.000 C 
BRANCH  16  20
ATOM     17  C   UNL     1      45.343   3.768   8.123  0.00  0.00    +0.000 C 
ATOM     18  C   UNL     1      45.243   2.585   9.089  0.00  0.00    +0.000 C 
ATOM     19  C   UNL     1      44.607   3.009  10.413  0.00  0.00    +0.000 C 
ATOM     20  C   UNL     1      45.284   4.227  11.067  0.00  0.00    +0.000 C 
ATOM     21  C   UNL     1      45.436   5.382  10.066  0.00  0.00    +0.000 C 
ATOM     22  C   UNL     1      46.109   4.924   8.771  0.00  0.00    +0.000 C 
BRANCH  17  24
ATOM     23  N   UNL     1      46.492   3.018   5.881  0.00  0.00    +0.000 NA
ATOM     24  C   UNL     1      45.982   3.352   6.867  0.00  0.00    +0.000 C 
ENDBRANCH  17  24
ENDBRANCH  16  20
ENDBRANCH   1  16
TORSDOF 4
ENDMDL
MODEL 8
REMARK VINA RESULT:    -6.184      3.415      5.255
REMARK INTER + INTRA:          -8.307
REMARK INTER:                  -7.737
REMARK INTRA:                  -0.571
REMARK UNBOUND:                -0.677
REMARK  Name = 
REMARK  4 active torsions:
REMARK  status: ('A' for Active; 'I' for Inactive)
REMARK    1  A    between atoms: C_2  and  C_3
REMARK    2  A    between atoms: C_6  and  C_7
REMARK    3  A    between atoms: C_7  and  N_8
REMARK    4  A    between atoms: C_9  and  C_11
REMARK                            x       y       z     vdW  Elec       q    Type
REMARK                         _______ _______ _______ _____ _____    ______ ____
ROOT
ATOM      1  N   UNL     1      46.920   6.833  14.042  0.00  0.00    +0.000 N 
ATOM      2  C   UNL     1      48.258   6.547  14.146  0.00  0.00    +0.000 C 
ATOM      3  O   UNL     1      49.003   6.455  13.171  0.00  0.00    +0.000 OA
ATOM      4  H   UNL     1      46.348   6.440  14.782  0.00  0.00    +0.000 HD
ENDROOT
BRANCH   2   5
ATOM      5  C   UNL     1      48.765   6.424  15.517  0.00  0.00    +0.000 A 
ATOM      6  C   UNL     1      49.651   7.363  16.021  0.00  0.00    +0.000 A 
ATOM      7  S   UNL     1      50.112   7.064  17.637  0.00  0.00    +0.000 S 
ATOM      8  C   UNL     1      49.163   5.653  17.707  0.00  0.00    +0.000 A 
ATOM      9  N   UNL     1      49.128   4.880  18.827  0.00  0.00    +0.000 NA
ATOM     10  C   UNL     1      48.387   3.827  18.729  0.00  0.00    +0.000 A 
ATOM     11  N   UNL     1      47.666   3.479  17.614  0.00  0.00    +0.000 N 
ATOM     12  C   UNL     1      47.650   4.243  16.476  0.00  0.00    +0.000 A 
ATOM     13  O   UNL     1      46.950   3.936  15.508  0.00  0.00    +0.000 OA
ATOM     14  C   UNL     1      48.485   5.426  16.523  0.00  0.00    +0.000 A 
ATOM     15  H   UNL     1      47.091   2.651  17.613  0.00  0.00    +0.000 HD
ENDBRANCH   2   5
BRANCH   1  16
ATOM     16  C   UNL     1      46.268   7.026  12.765  0.00  0.00    +0.000 C 
BRANCH  16  20
ATOM     17  C   UNL     1      44.631   3.710  10.375  0.00  0.00    +0.000 C 
ATOM     18  C   UNL     1      45.209   3.367  11.751  0.00  0.00    +0.000 C 
ATOM     19  C   UNL     1      45.382   4.624  12.603  0.00  0.00    +0.000 C 
ATOM     20  C   UNL     1      46.182   5.741  11.908  0.00  0.00    +0.000 C 
ATOM     21  C   UNL     1      45.630   6.028  10.503  0.00  0.00    +0.000 C 
ATOM     22  C   UNL     1      45.507   4.750   9.672  0.00  0.00    +0.000 C 
BRANCH  17  24
ATOM     23  N   UNL     1      44.402   1.538   8.912  0.00  0.00    +0.000 NA
ATOM     24  C   UNL     1      44.497   2.496   9.559  0.00  0.00    +0.000 C 
ENDBRANCH  17  24
ENDBRANCH  16  20
ENDBRANCH   1  16
TORSDOF 4
ENDMDL
MODEL 9
REMARK VINA RESULT:    -6.127      3.817      8.514
REMARK INTER + INTRA:          -8.237
REMARK INTER:                  -7.648
REMARK INTRA:                  -0.589
REMARK UNBOUND:                -0.677
REMARK  Name = 
REMARK  4 active torsions:
REMARK  status: ('A' for Active; 'I' for Inactive)
REMARK    1  A    between atoms: C_2  and  C_3
REMARK    2  A    between atoms: C_6  and  C_7
REMARK    3  A    between atoms: C_7  and  N_8
REMARK    4  A    between atoms: C_9  and  C_11
REMARK                            x       y       z     vdW  Elec       q    Type
REMARK                         _______ _______ _______ _____ _____    ______ ____
ROOT
ATOM      1  N   UNL     1      48.096   6.827  14.814  0.00  0.00    +0.000 N 
ATOM      2  C   UNL     1      48.123   6.510  13.479  0.00  0.00    +0.000 C 
ATOM      3  O   UNL     1      49.167   6.362  12.845  0.00  0.00    +0.000 OA
ATOM      4  H   UNL     1      47.282   7.360  15.103  0.00  0.00    +0.000 HD
ENDROOT
BRANCH   2   5
ATOM      5  C   UNL     1      46.810   6.289  12.864  0.00  0.00    +0.000 A 
ATOM      6  C   UNL     1      46.106   7.353  12.321  0.00  0.00    +0.000 A 
ATOM      7  S   UNL     1      44.611   6.898  11.635  0.00  0.00    +0.000 S 
ATOM      8  C   UNL     1      44.842   5.268  12.066  0.00  0.00    +0.000 A 
ATOM      9  N   UNL     1      43.901   4.324  11.792  0.00  0.00    +0.000 NA
ATOM     10  C   UNL     1      44.199   3.136  12.200  0.00  0.00    +0.000 A 
ATOM     11  N   UNL     1      45.361   2.800  12.849  0.00  0.00    +0.000 N 
ATOM     12  C   UNL     1      46.347   3.712  13.118  0.00  0.00    +0.000 A 
ATOM     13  O   UNL     1      47.406   3.373  13.653  0.00  0.00    +0.000 OA
ATOM     14  C   UNL     1      46.054   5.069  12.703  0.00  0.00    +0.000 A 
ATOM     15  H   UNL     1      45.538   1.846  13.123  0.00  0.00    +0.000 HD
ENDBRANCH   2   5
BRANCH   1  16
ATOM     16  C   UNL     1      49.304   7.039  15.583  0.00  0.00    +0.000 C 
BRANCH  16  20
ATOM     17  C   UNL     1      47.814   6.019  19.599  0.00  0.00    +0.000 C 
ATOM     18  C   UNL     1      48.953   7.039  19.508  0.00  0.00    +0.000 C 
ATOM     19  C   UNL     1      49.102   7.572  18.084  0.00  0.00    +0.000 C 
ATOM     20  C   UNL     1      49.237   6.468  17.019  0.00  0.00    +0.000 C 
ATOM     21  C   UNL     1      48.126   5.417  17.164  0.00  0.00    +0.000 C 
ATOM     22  C   UNL     1      48.034   4.885  18.594  0.00  0.00    +0.000 C 
BRANCH  17  24
ATOM     23  N   UNL     1      47.618   5.091  22.049  0.00  0.00    +0.000 NA
ATOM     24  C   UNL     1      47.702   5.496  20.967  0.00  0.00    +0.000 C 
ENDBRANCH  17  24
ENDBRANCH  16  20
ENDBRANCH   1  16
TORSDOF 4
ENDMDL
