MODEL 1
REMARK VINA RESULT:    -7.249      0.000      0.000
REMARK INTER + INTRA:         -10.789
REMARK INTER:                  -9.792
REMARK INTRA:                  -0.998
REMARK UNBOUND:                -0.998
REMARK  Name = 
REMARK  8 active torsions:
REMARK  status: ('A' for Active; 'I' for Inactive)
REMARK    1  A    between atoms: C_1  and  O_2
REMARK    2  A    between atoms: O_2  and  C_3
REMARK    3  A    between atoms: C_7  and  C_8
REMARK    4  A    between atoms: C_8  and  C_9
REMARK    5  A    between atoms: C_12  and  C_13
REMARK    6  A    between atoms: C_13  and  N_14
REMARK    7  A    between atoms: N_14  and  C_15
REMARK    8  A    between atoms: C_16  and  C_18
REMARK                            x       y       z     vdW  Elec       q    Type
REMARK                         _______ _______ _______ _____ _____    ______ ____
ROOT
ATOM      1  C   UNL     1      49.106   6.180  17.642  0.00  0.00    +0.000 C 
ENDROOT
BRANCH   1   5
ATOM      2  C   UNL     1      46.953   4.487  14.365  0.00  0.00    +0.000 A 
ATOM      3  C   UNL     1      47.570   5.722  14.174  0.00  0.00    +0.000 A 
ATOM      4  C   UNL     1      48.249   6.313  15.244  0.00  0.00    +0.000 A 
ATOM      5  C   UNL     1      48.274   5.676  16.486  0.00  0.00    +0.000 A 
ATOM      6  C   UNL     1      47.528   4.505  16.607  0.00  0.00    +0.000 A 
ATOM      7  N   UNL     1      46.890   3.894  15.583  0.00  0.00    +0.000 NA
BRANCH   2   8
ATOM      8  C   UNL     1      46.444   3.686  13.192  0.00  0.00    +0.000 C 
BRANCH   8  13
ATOM      9  C   UNL     1      44.041   4.443  10.525  0.00  0.00    +0.000 A 
ATOM     10  C   UNL     1      42.912   4.910  11.172  0.00  0.00    +0.000 A 
ATOM     11  C   UNL     1      42.943   5.002  12.559  0.00  0.00    +0.000 A 
ATOM     12  C   UNL     1      44.103   4.639  13.242  0.00  0.00    +0.000 A 
ATOM     13  C   UNL     1      45.205   4.203  12.512  0.00  0.00    +0.000 A 
ATOM     14  N   UNL     1      45.184   4.104  11.159  0.00  0.00    +0.000 NA
BRANCH   9  16
ATOM     15  C   UNL     1      45.154   3.736   8.613  0.00  0.00    +0.000 C 
ATOM     16  O   UNL     1      43.970   4.318   9.153  0.00  0.00    +0.000 OA
ENDBRANCH   9  16
ENDBRANCH   8  13
ENDBRANCH   2   8
ENDBRANCH   1   5
BRANCH   1  17
ATOM     17  N   UNL     1      50.137   5.253  18.151  0.00  0.00    +0.000 N 
ATOM     18  C   UNL     1      49.982   4.690  19.489  0.00  0.00    +0.000 C 
ATOM     19  C   UNL     1      51.333   5.168  17.411  0.00  0.00    +0.000 C 
ATOM     20  O   UNL     1      51.484   5.830  16.383  0.00  0.00    +0.000 OA
BRANCH  19  21
ATOM     21  C   UNL     1      52.392   4.234  17.836  0.00  0.00    +0.000 A 
ATOM     22  C   UNL     1      53.580   4.626  18.440  0.00  0.00    +0.000 A 
ATOM     23  S   UNL     1      54.587   3.323  18.884  0.00  0.00    +0.000 S 
ATOM     24  C   UNL     1      53.418   2.186  18.406  0.00  0.00    +0.000 A 
ATOM     25  N   UNL     1      53.617   0.857  18.612  0.00  0.00    +0.000 NA
ATOM     26  C   UNL     1      52.629   0.113  18.243  0.00  0.00    +0.000 A 
ATOM     27  N   UNL     1      51.480   0.575  17.652  0.00  0.00    +0.000 N 
ATOM     28  C   UNL     1      51.289   1.898  17.308  0.00  0.00    +0.000 A 
ATOM     29  O   UNL     1      50.366   2.233  16.577  0.00  0.00    +0.000 OA
ATOM     30  C   UNL     1      52.320   2.789  17.819  0.00  0.00    +0.000 A 
ATOM     31  H   UNL     1      50.778  -0.072  17.320  0.00  0.00    +0.000 HD
ENDBRANCH  19  21
ENDBRANCH   1  17
TORSDOF 6
ENDMDL
MODEL 2
REMARK VINA RESULT:    -7.243      3.237      4.689
REMARK INTER + INTRA:         -10.782
REMARK INTER:                  -9.837
REMARK INTRA:                  -0.945
REMARK UNBOUND:                -0.998
REMARK  Name = 
REMARK  8 active torsions:
REMARK  status: ('A' for Active; 'I' for Inactive)
REMARK    1  A    between atoms: C_1  and  O_2
REMARK    2  A    between atoms: O_2  and  C_3
REMARK    3  A    between atoms: C_7  and  C_8
REMARK    4  A    between atoms: C_8  and  C_9
REMARK    5  A    between atoms: C_12  and  C_13
REMARK    6  A    between atoms: C_13  and  N_14
REMARK    7  A    between atoms: N_14  and  C_15
REMARK    8  A    between atoms: C_16  and  C_18
REMARK                            x       y       z     vdW  Elec       q    Type
REMARK                         _______ _______ _______ _____ _____    ______ ____
ROOT
ATOM      1  C   UNL     1      47.707   8.485  12.708  0.00  0.00    +0.000 C 
ENDROOT
BRANCH   1   5
ATOM      2  C   UNL     1      44.615   5.921  11.257  0.00  0.00    +0.000 A 
ATOM      3  C   UNL     1      44.322   7.275  11.416  0.00  0.00    +0.000 A 
ATOM      4  C   UNL     1      45.307   8.126  11.925  0.00  0.00    +0.000 A 
ATOM      5  C   UNL     1      46.550   7.607  12.291  0.00  0.00    +0.000 A 
ATOM      6  C   UNL     1      46.704   6.225  12.207  0.00  0.00    +0.000 A 
ATOM      7  N   UNL     1      45.782   5.382  11.688  0.00  0.00    +0.000 NA
BRANCH   2   8
ATOM      8  C   UNL     1      43.697   5.016  10.472  0.00  0.00    +0.000 C 
BRANCH   8  13
ATOM      9  C   UNL     1      45.768   3.641   7.774  0.00  0.00    +0.000 A 
ATOM     10  C   UNL     1      45.786   2.275   7.987  0.00  0.00    +0.000 A 
ATOM     11  C   UNL     1      45.065   1.771   9.063  0.00  0.00    +0.000 A 
ATOM     12  C   UNL     1      44.343   2.647   9.873  0.00  0.00    +0.000 A 
ATOM     13  C   UNL     1      44.357   4.006   9.573  0.00  0.00    +0.000 A 
ATOM     14  N   UNL     1      45.062   4.510   8.528  0.00  0.00    +0.000 NA
BRANCH   9  16
ATOM     15  C   UNL     1      46.884   3.086   5.814  0.00  0.00    +0.000 C 
ATOM     16  O   UNL     1      46.528   4.121   6.727  0.00  0.00    +0.000 OA
ENDBRANCH   9  16
ENDBRANCH   8  13
ENDBRANCH   2   8
ENDBRANCH   1   5
BRANCH   1  17
ATOM     17  N   UNL     1      48.231   8.262  14.071  0.00  0.00    +0.000 N 
ATOM     18  C   UNL     1      47.741   9.100  15.162  0.00  0.00    +0.000 C 
ATOM     19  C   UNL     1      49.357   7.423  14.187  0.00  0.00    +0.000 C 
ATOM     20  O   UNL     1      49.853   6.897  13.191  0.00  0.00    +0.000 OA
BRANCH  19  21
ATOM     21  C   UNL     1      49.910   7.122  15.520  0.00  0.00    +0.000 A 
ATOM     22  C   UNL     1      50.964   7.817  16.100  0.00  0.00    +0.000 A 
ATOM     23  S   UNL     1      51.348   7.293  17.677  0.00  0.00    +0.000 S 
ATOM     24  C   UNL     1      50.038   6.210  17.693  0.00  0.00    +0.000 A 
ATOM     25  N   UNL     1      49.738   5.499  18.813  0.00  0.00    +0.000 NA
ATOM     26  C   UNL     1      48.692   4.752  18.698  0.00  0.00    +0.000 A 
ATOM     27  N   UNL     1      47.946   4.621  17.554  0.00  0.00    +0.000 N 
ATOM     28  C   UNL     1      48.287   5.222  16.359  0.00  0.00    +0.000 A 
ATOM     29  O   UNL     1      47.742   4.898  15.312  0.00  0.00    +0.000 OA
ATOM     30  C   UNL     1      49.383   6.172  16.475  0.00  0.00    +0.000 A 
ATOM     31  H   UNL     1      47.183   3.960  17.512  0.00  0.00    +0.000 HD
ENDBRANCH  19  21
ENDBRANCH   1  17
TORSDOF 6
ENDMDL
MODEL 3
REMARK VINA RESULT:    -7.077      3.941      4.717
REMARK INTER + INTRA:         -10.557
REMARK INTER:                  -9.575
REMARK INTRA:                  -0.982
REMARK UNBOUND:                -0.998
REMARK  Name = 
REMARK  8 active torsions:
REMARK  status: ('A' for Active; 'I' for Inactive)
REMARK    1  A    between atoms: C_1  and  O_2
REMARK    2  A    between atoms: O_2  and  C_3
REMARK    3  A    between atoms: C_7  and  C_8
REMARK    4  A    between atoms: C_8  and  C_9
REMARK    5  A    between atoms: C_12  and  C_13
REMARK    6  A    between atoms: C_13  and  N_14
REMARK    7  A    between atoms: N_14  and  C_15
REMARK    8  A    between atoms: C_16  and  C_18
REMARK                            x       y       z     vdW  Elec       q    Type
REMARK                         _______ _______ _______ _____ _____    ______ ____
ROOT
ATOM      1  C   UNL     1      48.714   7.457  13.755  0.00  0.00    +0.000 C 
ENDROOT
BRANCH   1   5
ATOM      2  C   UNL     1      45.093   6.131  11.919  0.00  0.00    +0.000 A 
ATOM      3  C   UNL     1      45.477   7.458  11.728  0.00  0.00    +0.000 A 
ATOM      4  C   UNL     1      46.639   7.924  12.350  0.00  0.00    +0.000 A 
ATOM      5  C   UNL     1      47.376   7.069  13.170  0.00  0.00    +0.000 A 
ATOM      6  C   UNL     1      46.846   5.800  13.393  0.00  0.00    +0.000 A 
ATOM      7  N   UNL     1      45.744   5.312  12.781  0.00  0.00    +0.000 NA
BRANCH   2   8
ATOM      8  C   UNL     1      44.014   5.507  11.070  0.00  0.00    +0.000 C 
BRANCH   8  13
ATOM      9  C   UNL     1      45.752   3.949   8.239  0.00  0.00    +0.000 A 
ATOM     10  C   UNL     1      45.504   2.595   8.358  0.00  0.00    +0.000 A 
ATOM     11  C   UNL     1      44.706   2.166   9.412  0.00  0.00    +0.000 A 
ATOM     12  C   UNL     1      44.176   3.105  10.295  0.00  0.00    +0.000 A 
ATOM     13  C   UNL     1      44.455   4.454  10.089  0.00  0.00    +0.000 A 
ATOM     14  N   UNL     1      45.237   4.883   9.067  0.00  0.00    +0.000 NA
BRANCH   9  16
ATOM     15  C   UNL     1      46.785   3.301   6.262  0.00  0.00    +0.000 C 
ATOM     16  O   UNL     1      46.584   4.345   7.212  0.00  0.00    +0.000 OA
ENDBRANCH   9  16
ENDBRANCH   8  13
ENDBRANCH   2   8
ENDBRANCH   1   5
BRANCH   1  17
ATOM     17  N   UNL     1      48.717   7.812  15.189  0.00  0.00    +0.000 N 
ATOM     18  C   UNL     1      48.083   9.058  15.609  0.00  0.00    +0.000 C 
ATOM     19  C   UNL     1      49.553   7.048  16.028  0.00  0.00    +0.000 C 
ATOM     20  O   UNL     1      50.225   6.124  15.572  0.00  0.00    +0.000 OA
BRANCH  19  21
ATOM     21  C   UNL     1      49.577   7.319  17.477  0.00  0.00    +0.000 A 
ATOM     22  C   UNL     1      50.376   8.285  18.075  0.00  0.00    +0.000 A 
ATOM     23  S   UNL     1      50.145   8.421  19.760  0.00  0.00    +0.000 S 
ATOM     24  C   UNL     1      48.879   7.288  19.732  0.00  0.00    +0.000 A 
ATOM     25  N   UNL     1      48.168   7.011  20.858  0.00  0.00    +0.000 NA
ATOM     26  C   UNL     1      47.208   6.168  20.681  0.00  0.00    +0.000 A 
ATOM     27  N   UNL     1      46.920   5.548  19.492  0.00  0.00    +0.000 N 
ATOM     28  C   UNL     1      47.691   5.700  18.357  0.00  0.00    +0.000 A 
ATOM     29  O   UNL     1      47.548   4.959  17.393  0.00  0.00    +0.000 OA
ATOM     30  C   UNL     1      48.706   6.737  18.475  0.00  0.00    +0.000 A 
ATOM     31  H   UNL     1      46.200   4.841  19.443  0.00  0.00    +0.000 HD
ENDBRANCH  19  21
ENDBRANCH   1  17
TORSDOF 6
ENDMDL
MODEL 4
REMARK VINA RESULT:    -6.976      3.426      4.542
REMARK INTER + INTRA:         -10.421
REMARK INTER:                  -9.408
REMARK INTRA:                  -1.013
REMARK UNBOUND:                -0.998
REMARK  Name = 
REMARK  8 active torsions:
REMARK  status: ('A' for Active; 'I' for Inactive)
REMARK    1  A    between atoms: C_1  and  O_2
REMARK    2  A    between atoms: O_2  and  C_3
REMARK    3  A    between atoms: C_7  and  C_8
REMARK    4  A    between atoms: C_8  and  C_9
REMARK    5  A    between atoms: C_12  and  C_13
REMARK    6  A    between atoms: C_13  and  N_14
REMARK    7  A    between atoms: N_14  and  C_15
REMARK    8  A    between atoms: C_16  and  C_18
REMARK                            x       y       z     vdW  Elec       q    Type
REMARK                         _______ _______ _______ _____ _____    ______ ____
ROOT
ATOM      1  C   UNL     1      48.690   6.474  14.298  0.00  0.00    +0.000 C 
ENDROOT
BRANCH   1   5
ATOM      2  C   UNL     1      45.153   5.854  11.985  0.00  0.00    +0.000 A 
ATOM      3  C   UNL     1      45.821   7.070  11.847  0.00  0.00    +0.000 A 
ATOM      4  C   UNL     1      46.959   7.310  12.622  0.00  0.00    +0.000 A 
ATOM      5  C   UNL     1      47.391   6.347  13.536  0.00  0.00    +0.000 A 
ATOM      6  C   UNL     1      46.589   5.218  13.685  0.00  0.00    +0.000 A 
ATOM      7  N   UNL     1      45.503   4.944  12.927  0.00  0.00    +0.000 NA
BRANCH   2   8
ATOM      8  C   UNL     1      44.093   5.436  10.997  0.00  0.00    +0.000 C 
BRANCH   8  13
ATOM      9  C   UNL     1      45.705   3.846   8.110  0.00  0.00    +0.000 A 
ATOM     10  C   UNL     1      45.436   2.496   8.238  0.00  0.00    +0.000 A 
ATOM     11  C   UNL     1      44.667   2.082   9.320  0.00  0.00    +0.000 A 
ATOM     12  C   UNL     1      44.185   3.032  10.220  0.00  0.00    +0.000 A 
ATOM     13  C   UNL     1      44.481   4.375  10.002  0.00  0.00    +0.000 A 
ATOM     14  N   UNL     1      45.235   4.789   8.954  0.00  0.00    +0.000 NA
BRANCH   9  16
ATOM     15  C   UNL     1      46.847   3.119   6.222  0.00  0.00    +0.000 C 
ATOM     16  O   UNL     1      46.508   4.226   7.054  0.00  0.00    +0.000 OA
ENDBRANCH   9  16
ENDBRANCH   8  13
ENDBRANCH   2   8
ENDBRANCH   1   5
BRANCH   1  17
ATOM     17  N   UNL     1      48.571   6.825  15.727  0.00  0.00    +0.000 N 
ATOM     18  C   UNL     1      48.587   8.233  16.112  0.00  0.00    +0.000 C 
ATOM     19  C   UNL     1      48.704   5.769  16.651  0.00  0.00    +0.000 C 
ATOM     20  O   UNL     1      48.892   4.616  16.264  0.00  0.00    +0.000 OA
BRANCH  19  21
ATOM     21  C   UNL     1      48.557   6.038  18.094  0.00  0.00    +0.000 A 
ATOM     22  C   UNL     1      47.377   5.852  18.803  0.00  0.00    +0.000 A 
ATOM     23  S   UNL     1      47.520   6.180  20.471  0.00  0.00    +0.000 S 
ATOM     24  C   UNL     1      49.190   6.455  20.329  0.00  0.00    +0.000 A 
ATOM     25  N   UNL     1      49.952   6.695  21.430  0.00  0.00    +0.000 NA
ATOM     26  C   UNL     1      51.209   6.840  21.179  0.00  0.00    +0.000 A 
ATOM     27  N   UNL     1      51.767   6.807  19.926  0.00  0.00    +0.000 N 
ATOM     28  C   UNL     1      51.018   6.695  18.772  0.00  0.00    +0.000 A 
ATOM     29  O   UNL     1      51.517   6.905  17.674  0.00  0.00    +0.000 OA
ATOM     30  C   UNL     1      49.613   6.402  19.012  0.00  0.00    +0.000 A 
ATOM     31  H   UNL     1      52.749   7.003  19.796  0.00  0.00    +0.000 HD
ENDBRANCH  19  21
ENDBRANCH   1  17
TORSDOF 6
ENDMDL
MODEL 5
REMARK VINA RESULT:    -6.858      1.641      2.030
REMARK INTER + INTRA:         -10.261
REMARK INTER:                  -9.777
REMARK INTRA:                  -0.484
REMARK UNBOUND:                -0.998
REMARK  Name = 
REMARK  8 active torsions:
REMARK  status: ('A' for Active; 'I' for Inactive)
REMARK    1  A    between atoms: C_1  and  O_2
REMARK    2  A    between atoms: O_2  and  C_3
REMARK    3  A    between atoms: C_7  and  C_8
REMARK    4  A    between atoms: C_8  and  C_9
REMARK    5  A    between atoms: C_12  and  C_13
REMARK    6  A    between atoms: C_13  and  N_14
REMARK    7  A    between atoms: N_14  and  C_15
REMARK    8  A    between atoms: C_16  and  C_18
REMARK                            x       y       z     vdW  Elec       q    Type
REMARK                         _______ _______ _______ _____ _____    ______ ____
ROOT
ATOM      1  C   UNL     1      48.862   7.074  16.353  0.00  0.00    +0.000 C 
ENDROOT
BRANCH   1   5
ATOM      2  C   UNL     1      46.955   6.336  12.603  0.00  0.00    +0.000 A 
ATOM      3  C   UNL     1      47.175   5.251  13.451  0.00  0.00    +0.000 A 
ATOM      4  C   UNL     1      47.831   5.463  14.667  0.00  0.00    +0.000 A 
ATOM      5  C   UNL     1      48.278   6.742  14.999  0.00  0.00    +0.000 A 
ATOM      6  C   UNL     1      48.116   7.735  14.035  0.00  0.00    +0.000 A 
ATOM      7  N   UNL     1      47.457   7.567  12.866  0.00  0.00    +0.000 NA
BRANCH   2   8
ATOM      8  C   UNL     1      46.027   6.219  11.420  0.00  0.00    +0.000 C 
BRANCH   8  13
ATOM      9  C   UNL     1      44.236   3.180  10.412  0.00  0.00    +0.000 A 
ATOM     10  C   UNL     1      43.425   2.860  11.484  0.00  0.00    +0.000 A 
ATOM     11  C   UNL     1      43.449   3.696  12.595  0.00  0.00    +0.000 A 
ATOM     12  C   UNL     1      44.269   4.824  12.584  0.00  0.00    +0.000 A 
ATOM     13  C   UNL     1      45.035   5.087  11.452  0.00  0.00    +0.000 A 
ATOM     14  N   UNL     1      45.024   4.275  10.365  0.00  0.00    +0.000 NA
BRANCH   9  16
ATOM     15  C   UNL     1      45.547   2.030   8.877  0.00  0.00    +0.000 C 
ATOM     16  O   UNL     1      44.228   2.310   9.340  0.00  0.00    +0.000 OA
ENDBRANCH   9  16
ENDBRANCH   8  13
ENDBRANCH   2   8
ENDBRANCH   1   5
BRANCH   1  17
ATOM     17  N   UNL     1      50.128   6.396  16.697  0.00  0.00    +0.000 N 
ATOM     18  C   UNL     1      51.334   6.728  15.943  0.00  0.00    +0.000 C 
ATOM     19  C   UNL     1      50.038   5.288  17.563  0.00  0.00    +0.000 C 
ATOM     20  O   UNL     1      48.950   4.930  18.014  0.00  0.00    +0.000 OA
BRANCH  19  21
ATOM     21  C   UNL     1      51.265   4.587  17.983  0.00  0.00    +0.000 A 
ATOM     22  C   UNL     1      52.276   5.172  18.737  0.00  0.00    +0.000 A 
ATOM     23  S   UNL     1      53.545   4.102  19.130  0.00  0.00    +0.000 S 
ATOM     24  C   UNL     1      52.730   2.790  18.423  0.00  0.00    +0.000 A 
ATOM     25  N   UNL     1      53.240   1.531  18.500  0.00  0.00    +0.000 NA
ATOM     26  C   UNL     1      52.494   0.627  17.960  0.00  0.00    +0.000 A 
ATOM     27  N   UNL     1      51.308   0.872  17.317  0.00  0.00    +0.000 N 
ATOM     28  C   UNL     1      50.817   2.144  17.102  0.00  0.00    +0.000 A 
ATOM     29  O   UNL     1      49.889   2.339  16.327  0.00  0.00    +0.000 OA
ATOM     30  C   UNL     1      51.557   3.182  17.803  0.00  0.00    +0.000 A 
ATOM     31  H   UNL     1      50.813   0.124  16.851  0.00  0.00    +0.000 HD
ENDBRANCH  19  21
ENDBRANCH   1  17
TORSDOF 6
ENDMDL
MODEL 6
REMARK VINA RESULT:    -6.630      2.949      4.053
REMARK INTER + INTRA:          -9.954
REMARK INTER:                  -8.718
REMARK INTRA:                  -1.236
REMARK UNBOUND:                -0.998
REMARK  Name = 
REMARK  8 active torsions:
REMARK  status: ('A' for Active; 'I' for Inactive)
REMARK    1  A    between atoms: C_1  and  O_2
REMARK    2  A    between atoms: O_2  and  C_3
REMARK    3  A    between atoms: C_7  and  C_8
REMARK    4  A    between atoms: C_8  and  C_9
REMARK    5  A    between atoms: C_12  and  C_13
REMARK    6  A    between atoms: C_13  and  N_14
REMARK    7  A    between atoms: N_14  and  C_15
REMARK    8  A    between atoms: C_16  and  C_18
REMARK                            x       y       z     vdW  Elec       q    Type
REMARK                         _______ _______ _______ _____ _____    ______ ____
ROOT
ATOM      1  C   UNL     1      48.571   9.098  13.966  0.00  0.00    +0.000 C 
ENDROOT
BRANCH   1   5
ATOM      2  C   UNL     1      45.255   7.621  11.715  0.00  0.00    +0.000 A 
ATOM      3  C   UNL     1      46.441   6.889  11.691  0.00  0.00    +0.000 A 
ATOM      4  C   UNL     1      47.551   7.373  12.390  0.00  0.00    +0.000 A 
ATOM      5  C   UNL     1      47.465   8.587  13.073  0.00  0.00    +0.000 A 
ATOM      6  C   UNL     1      46.276   9.300  12.938  0.00  0.00    +0.000 A 
ATOM      7  N   UNL     1      45.176   8.843  12.297  0.00  0.00    +0.000 NA
BRANCH   2   8
ATOM      8  C   UNL     1      43.965   7.023  11.211  0.00  0.00    +0.000 C 
BRANCH   8  13
ATOM      9  C   UNL     1      43.745   3.382  10.822  0.00  0.00    +0.000 A 
ATOM     10  C   UNL     1      43.500   2.892  12.091  0.00  0.00    +0.000 A 
ATOM     11  C   UNL     1      43.379   3.806  13.133  0.00  0.00    +0.000 A 
ATOM     12  C   UNL     1      43.493   5.169  12.863  0.00  0.00    +0.000 A 
ATOM     13  C   UNL     1      43.716   5.579  11.551  0.00  0.00    +0.000 A 
ATOM     14  N   UNL     1      43.840   4.696  10.529  0.00  0.00    +0.000 NA
BRANCH   9  16
ATOM     15  C   UNL     1      45.068   2.718   9.032  0.00  0.00    +0.000 C 
ATOM     16  O   UNL     1      43.906   2.453   9.814  0.00  0.00    +0.000 OA
ENDBRANCH   9  16
ENDBRANCH   8  13
ENDBRANCH   2   8
ENDBRANCH   1   5
BRANCH   1  17
ATOM     17  N   UNL     1      48.737   8.399  15.256  0.00  0.00    +0.000 N 
ATOM     18  C   UNL     1      48.098   8.952  16.447  0.00  0.00    +0.000 C 
ATOM     19  C   UNL     1      49.712   7.382  15.303  0.00  0.00    +0.000 C 
ATOM     20  O   UNL     1      50.368   7.094  14.302  0.00  0.00    +0.000 OA
BRANCH  19  21
ATOM     21  C   UNL     1      49.906   6.613  16.546  0.00  0.00    +0.000 A 
ATOM     22  C   UNL     1      50.813   6.958  17.541  0.00  0.00    +0.000 A 
ATOM     23  S   UNL     1      50.773   5.922  18.896  0.00  0.00    +0.000 S 
ATOM     24  C   UNL     1      49.455   5.056  18.262  0.00  0.00    +0.000 A 
ATOM     25  N   UNL     1      48.857   4.072  18.986  0.00  0.00    +0.000 NA
ATOM     26  C   UNL     1      47.842   3.531  18.401  0.00  0.00    +0.000 A 
ATOM     27  N   UNL     1      47.396   3.858  17.146  0.00  0.00    +0.000 N 
ATOM     28  C   UNL     1      48.047   4.757  16.326  0.00  0.00    +0.000 A 
ATOM     29  O   UNL     1      47.763   4.848  15.138  0.00  0.00    +0.000 OA
ATOM     30  C   UNL     1      49.119   5.483  16.989  0.00  0.00    +0.000 A 
ATOM     31  H   UNL     1      46.640   3.341  16.719  0.00  0.00    +0.000 HD
ENDBRANCH  19  21
ENDBRANCH   1  17
TORSDOF 6
ENDMDL
MODEL 7
REMARK VINA RESULT:    -6.624      5.642      6.409
REMARK INTER + INTRA:          -9.946
REMARK INTER:                  -8.765
REMARK INTRA:                  -1.181
REMARK UNBOUND:                -0.998
REMARK  Name = 
REMARK  8 active torsions:
REMARK  status: ('A' for Active; 'I' for Inactive)
REMARK    1  A    between atoms: C_1  and  O_2
REMARK    2  A    between atoms: O_2  and  C_3
REMARK    3  A    between atoms: C_7  and  C_8
REMARK    4  A    between atoms: C_8  and  C_9
REMARK    5  A    between atoms: C_12  and  C_13
REMARK    6  A    between atoms: C_13  and  N_14
REMARK    7  A    between atoms: N_14  and  C_15
REMARK    8  A    between atoms: C_16  and  C_18
REMARK                            x       y       z     vdW  Elec       q    Type
REMARK                         _______ _______ _______ _____ _____    ______ ____
ROOT
ATOM      1  C   UNL     1      47.290   8.553  14.006  0.00  0.00    +0.000 C 
ENDROOT
BRANCH   1   5
ATOM      2  C   UNL     1      44.962   6.128  11.372  0.00  0.00    +0.000 A 
ATOM      3  C   UNL     1      46.089   5.558  11.961  0.00  0.00    +0.000 A 
ATOM      4  C   UNL     1      46.888   6.344  12.797  0.00  0.00    +0.000 A 
ATOM      5  C   UNL     1      46.563   7.685  13.005  0.00  0.00    +0.000 A 
ATOM      6  C   UNL     1      45.487   8.191  12.279  0.00  0.00    +0.000 A 
ATOM      7  N   UNL     1      44.678   7.448  11.490  0.00  0.00    +0.000 NA
BRANCH   2   8
ATOM      8  C   UNL     1      43.928   5.269  10.687  0.00  0.00    +0.000 C 
BRANCH   8  13
ATOM      9  C   UNL     1      45.745   3.719   7.902  0.00  0.00    +0.000 A 
ATOM     10  C   UNL     1      45.630   2.356   8.102  0.00  0.00    +0.000 A 
ATOM     11  C   UNL     1      44.899   1.917   9.200  0.00  0.00    +0.000 A 
ATOM     12  C   UNL     1      44.302   2.852  10.043  0.00  0.00    +0.000 A 
ATOM     13  C   UNL     1      44.447   4.207   9.755  0.00  0.00    +0.000 A 
ATOM     14  N   UNL     1      45.162   4.647   8.689  0.00  0.00    +0.000 NA
BRANCH   9  16
ATOM     15  C   UNL     1      46.787   3.058   5.933  0.00  0.00    +0.000 C 
ATOM     16  O   UNL     1      46.514   4.131   6.832  0.00  0.00    +0.000 OA
ENDBRANCH   9  16
ENDBRANCH   8  13
ENDBRANCH   2   8
ENDBRANCH   1   5
BRANCH   1  17
ATOM     17  N   UNL     1      48.565   9.142  13.547  0.00  0.00    +0.000 N 
ATOM     18  C   UNL     1      48.533  10.202  12.544  0.00  0.00    +0.000 C 
ATOM     19  C   UNL     1      49.744   8.467  13.923  0.00  0.00    +0.000 C 
ATOM     20  O   UNL     1      49.693   7.450  14.614  0.00  0.00    +0.000 OA
BRANCH  19  21
ATOM     21  C   UNL     1      51.056   9.019  13.536  0.00  0.00    +0.000 A 
ATOM     22  C   UNL     1      51.835   9.822  14.360  0.00  0.00    +0.000 A 
ATOM     23  S   UNL     1      53.335  10.259  13.673  0.00  0.00    +0.000 S 
ATOM     24  C   UNL     1      53.054   9.287  12.308  0.00  0.00    +0.000 A 
ATOM     25  N   UNL     1      54.010   9.135  11.353  0.00  0.00    +0.000 NA
ATOM     26  C   UNL     1      53.679   8.333  10.398  0.00  0.00    +0.000 A 
ATOM     27  N   UNL     1      52.466   7.702  10.291  0.00  0.00    +0.000 N 
ATOM     28  C   UNL     1      51.421   7.925  11.166  0.00  0.00    +0.000 A 
ATOM     29  O   UNL     1      50.290   7.534  10.910  0.00  0.00    +0.000 OA
ATOM     30  C   UNL     1      51.791   8.721  12.327  0.00  0.00    +0.000 A 
ATOM     31  H   UNL     1      52.246   7.146   9.477  0.00  0.00    +0.000 HD
ENDBRANCH  19  21
ENDBRANCH   1  17
TORSDOF 6
ENDMDL
MODEL 8
REMARK VINA RESULT:    -6.583      3.383      8.125
REMARK INTER + INTRA:          -9.890
REMARK INTER:                  -8.636
REMARK INTRA:                  -1.254
REMARK UNBOUND:                -0.998
REMARK  Name = 
REMARK  8 active torsions:
REMARK  status: ('A' for Active; 'I' for Inactive)
REMARK    1  A    between atoms: C_1  and  O_2
REMARK    2  A    between atoms: O_2  and  C_3
REMARK    3  A    between atoms: C_7  and  C_8
REMARK    4  A    between atoms: C_8  and  C_9
REMARK    5  A    between atoms: C_12  and  C_13
REMARK    6  A    between atoms: C_13  and  N_14
REMARK    7  A    between atoms: N_14  and  C_15
REMARK    8  A    between atoms: C_16  and  C_18
REMARK                            x       y       z     vdW  Elec       q    Type
REMARK                         _______ _______ _______ _____ _____    ______ ____
ROOT
ATOM      1  C   UNL     1      50.100   8.564  14.379  0.00  0.00    +0.000 C 
ENDROOT
BRANCH   1   5
ATOM      2  C   UNL     1      51.470   6.296  17.728  0.00  0.00    +0.000 A 
ATOM      3  C   UNL     1      50.264   6.983  17.852  0.00  0.00    +0.000 A 
ATOM      4  C   UNL     1      49.814   7.762  16.782  0.00  0.00    +0.000 A 
ATOM      5  C   UNL     1      50.588   7.863  15.625  0.00  0.00    +0.000 A 
ATOM      6  C   UNL     1      51.832   7.236  15.645  0.00  0.00    +0.000 A 
ATOM      7  N   UNL     1      52.278   6.450  16.651  0.00  0.00    +0.000 NA
BRANCH   2   8
ATOM      8  C   UNL     1      51.868   5.241  18.730  0.00  0.00    +0.000 C 
BRANCH   8  13
ATOM      9  C   UNL     1      50.663   2.257  16.969  0.00  0.00    +0.000 A 
ATOM     10  C   UNL     1      51.624   1.288  17.191  0.00  0.00    +0.000 A 
ATOM     11  C   UNL     1      52.720   1.622  17.978  0.00  0.00    +0.000 A 
ATOM     12  C   UNL     1      52.805   2.902  18.524  0.00  0.00    +0.000 A 
ATOM     13  C   UNL     1      51.781   3.810  18.271  0.00  0.00    +0.000 A 
ATOM     14  N   UNL     1      50.709   3.497  17.500  0.00  0.00    +0.000 NA
BRANCH   9  16
ATOM     15  C   UNL     1      48.360   2.352  16.679  0.00  0.00    +0.000 C 
ATOM     16  O   UNL     1      49.608   1.915  16.147  0.00  0.00    +0.000 OA
ENDBRANCH   9  16
ENDBRANCH   8  13
ENDBRANCH   2   8
ENDBRANCH   1   5
BRANCH   1  17
ATOM     17  N   UNL     1      49.107   7.829  13.568  0.00  0.00    +0.000 N 
ATOM     18  C   UNL     1      49.564   7.075  12.405  0.00  0.00    +0.000 C 
ATOM     19  C   UNL     1      47.750   8.110  13.823  0.00  0.00    +0.000 C 
ATOM     20  O   UNL     1      47.429   8.918  14.695  0.00  0.00    +0.000 OA
BRANCH  19  21
ATOM     21  C   UNL     1      46.702   7.385  13.081  0.00  0.00    +0.000 A 
ATOM     22  C   UNL     1      45.908   7.959  12.095  0.00  0.00    +0.000 A 
ATOM     23  S   UNL     1      44.826   6.864  11.362  0.00  0.00    +0.000 S 
ATOM     24  C   UNL     1      45.468   5.558  12.239  0.00  0.00    +0.000 A 
ATOM     25  N   UNL     1      45.039   4.288  12.009  0.00  0.00    +0.000 NA
ATOM     26  C   UNL     1      45.644   3.392  12.714  0.00  0.00    +0.000 A 
ATOM     27  N   UNL     1      46.608   3.655  13.653  0.00  0.00    +0.000 N 
ATOM     28  C   UNL     1      46.983   4.935  14.011  0.00  0.00    +0.000 A 
ATOM     29  O   UNL     1      47.664   5.137  15.007  0.00  0.00    +0.000 OA
ATOM     30  C   UNL     1      46.420   5.969  13.155  0.00  0.00    +0.000 A 
ATOM     31  H   UNL     1      46.987   2.911  14.222  0.00  0.00    +0.000 HD
ENDBRANCH  19  21
ENDBRANCH   1  17
TORSDOF 6
ENDMDL
MODEL 9
REMARK VINA RESULT:    -6.450      3.699      4.502
REMARK INTER + INTRA:          -9.711
REMARK INTER:                  -8.676
REMARK INTRA:                  -1.035
REMARK UNBOUND:                -0.998
REMARK  Name = 
REMARK  8 active torsions:
REMARK  status: ('A' for Active; 'I' for Inactive)
REMARK    1  A    between atoms: C_1  and  O_2
REMARK    2  A    between atoms: O_2  and  C_3
REMARK    3  A    between atoms: C_7  and  C_8
REMARK    4  A    between atoms: C_8  and  C_9
REMARK    5  A    between atoms: C_12  and  C_13
REMARK    6  A    between atoms: C_13  and  N_14
REMARK    7  A    between atoms: N_14  and  C_15
REMARK    8  A    between atoms: C_16  and  C_18
REMARK                            x       y       z     vdW  Elec       q    Type
REMARK                         _______ _______ _______ _____ _____    ______ ____
ROOT
ATOM      1  C   UNL     1      50.324   7.644  14.461  0.00  0.00    +0.000 C 
ENDROOT
BRANCH   1   5
ATOM      2  C   UNL     1      46.972   6.726  11.979  0.00  0.00    +0.000 A 
ATOM      3  C   UNL     1      46.966   6.252  13.290  0.00  0.00    +0.000 A 
ATOM      4  C   UNL     1      48.069   6.508  14.109  0.00  0.00    +0.000 A 
ATOM      5  C   UNL     1      49.165   7.205  13.598  0.00  0.00    +0.000 A 
ATOM      6  C   UNL     1      49.125   7.532  12.244  0.00  0.00    +0.000 A 
ATOM      7  N   UNL     1      48.060   7.326  11.437  0.00  0.00    +0.000 NA
BRANCH   2   8
ATOM      8  C   UNL     1      45.715   6.714  11.145  0.00  0.00    +0.000 C 
BRANCH   8  13
ATOM      9  C   UNL     1      44.193   3.455  10.423  0.00  0.00    +0.000 A 
ATOM     10  C   UNL     1      44.571   3.153   9.128  0.00  0.00    +0.000 A 
ATOM     11  C   UNL     1      45.386   4.058   8.457  0.00  0.00    +0.000 A 
ATOM     12  C   UNL     1      45.804   5.217   9.110  0.00  0.00    +0.000 A 
ATOM     13  C   UNL     1      45.398   5.431  10.424  0.00  0.00    +0.000 A 
ATOM     14  N   UNL     1      44.598   4.559  11.087  0.00  0.00    +0.000 NA
BRANCH   9  16
ATOM     15  C   UNL     1      43.446   2.653  12.471  0.00  0.00    +0.000 C 
ATOM     16  O   UNL     1      43.347   2.564  11.052  0.00  0.00    +0.000 OA
ENDBRANCH   9  16
ENDBRANCH   8  13
ENDBRANCH   2   8
ENDBRANCH   1   5
BRANCH   1  17
ATOM     17  N   UNL     1      50.040   7.794  15.903  0.00  0.00    +0.000 N 
ATOM     18  C   UNL     1      49.494   9.058  16.387  0.00  0.00    +0.000 C 
ATOM     19  C   UNL     1      50.549   6.794  16.755  0.00  0.00    +0.000 C 
ATOM     20  O   UNL     1      51.182   5.842  16.299  0.00  0.00    +0.000 OA
BRANCH  19  21
ATOM     21  C   UNL     1      50.270   6.856  18.202  0.00  0.00    +0.000 A 
ATOM     22  C   UNL     1      51.088   7.493  19.126  0.00  0.00    +0.000 A 
ATOM     23  S   UNL     1      50.480   7.461  20.719  0.00  0.00    +0.000 S 
ATOM     24  C   UNL     1      49.042   6.711  20.212  0.00  0.00    +0.000 A 
ATOM     25  N   UNL     1      48.030   6.482  21.092  0.00  0.00    +0.000 NA
ATOM     26  C   UNL     1      46.981   5.949  20.561  0.00  0.00    +0.000 A 
ATOM     27  N   UNL     1      46.869   5.588  19.242  0.00  0.00    +0.000 N 
ATOM     28  C   UNL     1      47.913   5.682  18.344  0.00  0.00    +0.000 A 
ATOM     29  O   UNL     1      47.855   5.138  17.249  0.00  0.00    +0.000 OA
ATOM     30  C   UNL     1      49.070   6.394  18.866  0.00  0.00    +0.000 A 
ATOM     31  H   UNL     1      46.046   5.106  18.910  0.00  0.00    +0.000 HD
ENDBRANCH  19  21
ENDBRANCH   1  17
TORSDOF 6
ENDMDL
