MODEL 1
REMARK VINA RESULT:    -7.978      0.000      0.000
REMARK INTER + INTRA:         -11.177
REMARK INTER:                 -10.311
REMARK INTRA:                  -0.866
REMARK UNBOUND:                -0.866
REMARK  Name = 
REMARK  5 active torsions:
REMARK  status: ('A' for Active; 'I' for Inactive)
REMARK    1  A    between atoms: C_2  and  C_3
REMARK    2  A    between atoms: C_6  and  C_7
REMARK    3  A    between atoms: C_7  and  O_8
REMARK    4  A    between atoms: O_8  and  C_9
REMARK    5  A    between atoms: C_13  and  C_14
REMARK                            x       y       z     vdW  Elec       q    Type
REMARK                         _______ _______ _______ _____ _____    ______ ____
ROOT
ATOM      1  C   UNL     1      44.964   4.932  11.624  0.00  0.00    +0.000 A 
ATOM      2  C   UNL     1      45.238   4.049  12.667  0.00  0.00    +0.000 A 
ATOM      3  C   UNL     1      46.297   4.296  13.538  0.00  0.00    +0.000 A 
ATOM      4  C   UNL     1      47.089   5.436  13.372  0.00  0.00    +0.000 A 
ATOM      5  C   UNL     1      46.832   6.365  12.348  0.00  0.00    +0.000 A 
ATOM      6  C   UNL     1      45.760   6.078  11.479  0.00  0.00    +0.000 A 
ATOM      7  F   UNL     1      45.481   6.955  10.501  0.00  0.00    +0.000 F 
ENDROOT
BRANCH   5   8
ATOM      8  C   UNL     1      47.613   7.621  12.223  0.00  0.00    +0.000 A 
ATOM      9  C   UNL     1      48.931   7.632  11.728  0.00  0.00    +0.000 A 
ATOM     10  C   UNL     1      49.625   8.826  11.515  0.00  0.00    +0.000 A 
ATOM     11  C   UNL     1      49.027  10.042  11.825  0.00  0.00    +0.000 A 
ATOM     12  C   UNL     1      47.740  10.061  12.352  0.00  0.00    +0.000 A 
ATOM     13  C   UNL     1      47.042   8.866  12.546  0.00  0.00    +0.000 A 
ENDBRANCH   5   8
BRANCH   1  14
ATOM     14  O   UNL     1      43.898   4.573  10.838  0.00  0.00    +0.000 OA
BRANCH  14  15
ATOM     15  C   UNL     1      43.845   3.206  10.424  0.00  0.00    +0.000 C 
BRANCH  15  19
ATOM     16  C   UNL     1      46.669   2.436   7.250  0.00  0.00    +0.000 A 
ATOM     17  C   UNL     1      46.202   3.738   7.463  0.00  0.00    +0.000 A 
ATOM     18  C   UNL     1      45.269   3.990   8.471  0.00  0.00    +0.000 A 
ATOM     19  C   UNL     1      44.787   2.946   9.271  0.00  0.00    +0.000 A 
ATOM     20  C   UNL     1      45.268   1.644   9.058  0.00  0.00    +0.000 A 
ATOM     21  C   UNL     1      46.200   1.390   8.051  0.00  0.00    +0.000 A 
BRANCH  16  23
ATOM     22  N   UNL     1      48.423   1.973   5.399  0.00  0.00    +0.000 NA
ATOM     23  C   UNL     1      47.637   2.179   6.226  0.00  0.00    +0.000 C 
ENDBRANCH  16  23
ENDBRANCH  15  19
ENDBRANCH  14  15
ENDBRANCH   1  14
TORSDOF 5
ENDMDL
MODEL 2
REMARK VINA RESULT:    -7.748      2.375      6.572
REMARK INTER + INTRA:         -10.879
REMARK INTER:                 -10.141
REMARK INTRA:                  -0.738
REMARK UNBOUND:                -0.866
REMARK  Name = 
REMARK  5 active torsions:
REMARK  status: ('A' for Active; 'I' for Inactive)
REMARK    1  A    between atoms: C_2  and  C_3
REMARK    2  A    between atoms: C_6  and  C_7
REMARK    3  A    between atoms: C_7  and  O_8
REMARK    4  A    between atoms: O_8  and  C_9
REMARK    5  A    between atoms: C_13  and  C_14
REMARK                            x       y       z     vdW  Elec       q    Type
REMARK                         _______ _______ _______ _____ _____    ______ ____
ROOT
ATOM      1  C   UNL     1      44.297   5.075  11.134  0.00  0.00    +0.000 A 
ATOM      2  C   UNL     1      43.496   4.184  11.847  0.00  0.00    +0.000 A 
ATOM      3  C   UNL     1      43.356   2.866  11.418  0.00  0.00    +0.000 A 
ATOM      4  C   UNL     1      44.024   2.427  10.272  0.00  0.00    +0.000 A 
ATOM      5  C   UNL     1      44.863   3.285   9.538  0.00  0.00    +0.000 A 
ATOM      6  C   UNL     1      44.972   4.614   9.993  0.00  0.00    +0.000 A 
ATOM      7  F   UNL     1      45.778   5.453   9.322  0.00  0.00    +0.000 F 
ENDROOT
BRANCH   5   8
ATOM      8  C   UNL     1      45.645   2.800   8.374  0.00  0.00    +0.000 A 
ATOM      9  C   UNL     1      45.887   3.612   7.249  0.00  0.00    +0.000 A 
ATOM     10  C   UNL     1      46.709   3.190   6.202  0.00  0.00    +0.000 A 
ATOM     11  C   UNL     1      47.287   1.926   6.239  0.00  0.00    +0.000 A 
ATOM     12  C   UNL     1      47.035   1.085   7.318  0.00  0.00    +0.000 A 
ATOM     13  C   UNL     1      46.227   1.520   8.372  0.00  0.00    +0.000 A 
ENDBRANCH   5   8
BRANCH   1  14
ATOM     14  O   UNL     1      44.349   6.341  11.658  0.00  0.00    +0.000 OA
BRANCH  14  15
ATOM     15  C   UNL     1      45.006   6.481  12.920  0.00  0.00    +0.000 C 
BRANCH  15  19
ATOM     16  C   UNL     1      49.067   7.781  12.243  0.00  0.00    +0.000 A 
ATOM     17  C   UNL     1      48.827   6.567  12.896  0.00  0.00    +0.000 A 
ATOM     18  C   UNL     1      47.516   6.153  13.141  0.00  0.00    +0.000 A 
ATOM     19  C   UNL     1      46.433   6.948  12.745  0.00  0.00    +0.000 A 
ATOM     20  C   UNL     1      46.682   8.159  12.080  0.00  0.00    +0.000 A 
ATOM     21  C   UNL     1      47.991   8.576  11.835  0.00  0.00    +0.000 A 
BRANCH  16  23
ATOM     22  N   UNL     1      51.497   8.542  11.759  0.00  0.00    +0.000 NA
ATOM     23  C   UNL     1      50.411   8.200  11.977  0.00  0.00    +0.000 C 
ENDBRANCH  16  23
ENDBRANCH  15  19
ENDBRANCH  14  15
ENDBRANCH   1  14
TORSDOF 5
ENDMDL
MODEL 3
REMARK VINA RESULT:    -7.701      1.440      1.985
REMARK INTER + INTRA:         -10.818
REMARK INTER:                  -9.835
REMARK INTRA:                  -0.982
REMARK UNBOUND:                -0.866
REMARK  Name = 
REMARK  5 active torsions:
REMARK  status: ('A' for Active; 'I' for Inactive)
REMARK    1  A    between atoms: C_2  and  C_3
REMARK    2  A    between atoms: C_6  and  C_7
REMARK    3  A    between atoms: C_7  and  O_8
REMARK    4  A    between atoms: O_8  and  C_9
REMARK    5  A    between atoms: C_13  and  C_14
REMARK                            x       y       z     vdW  Elec       q    Type
REMARK                         _______ _______ _______ _____ _____    ______ ____
ROOT
ATOM      1  C   UNL     1      44.841   5.481  11.778  0.00  0.00    +0.000 A 
ATOM      2  C   UNL     1      44.025   6.540  11.381  0.00  0.00    +0.000 A 
ATOM      3  C   UNL     1      44.489   7.852  11.456  0.00  0.00    +0.000 A 
ATOM      4  C   UNL     1      45.779   8.113  11.927  0.00  0.00    +0.000 A 
ATOM      5  C   UNL     1      46.643   7.073  12.314  0.00  0.00    +0.000 A 
ATOM      6  C   UNL     1      46.138   5.760  12.235  0.00  0.00    +0.000 A 
ATOM      7  F   UNL     1      46.946   4.745  12.583  0.00  0.00    +0.000 F 
ENDROOT
BRANCH   5   8
ATOM      8  C   UNL     1      48.043   7.339  12.728  0.00  0.00    +0.000 A 
ATOM      9  C   UNL     1      49.030   7.734  11.805  0.00  0.00    +0.000 A 
ATOM     10  C   UNL     1      50.320   8.084  12.214  0.00  0.00    +0.000 A 
ATOM     11  C   UNL     1      50.665   8.014  13.559  0.00  0.00    +0.000 A 
ATOM     12  C   UNL     1      49.723   7.589  14.490  0.00  0.00    +0.000 A 
ATOM     13  C   UNL     1      48.428   7.259  14.079  0.00  0.00    +0.000 A 
ENDBRANCH   5   8
BRANCH   1  14
ATOM     14  O   UNL     1      44.266   4.241  11.657  0.00  0.00    +0.000 OA
BRANCH  14  15
ATOM     15  C   UNL     1      43.612   3.963  10.417  0.00  0.00    +0.000 C 
BRANCH  15  19
ATOM     16  C   UNL     1      46.527   2.483   7.597  0.00  0.00    +0.000 A 
ATOM     17  C   UNL     1      46.240   3.852   7.645  0.00  0.00    +0.000 A 
ATOM     18  C   UNL     1      45.280   4.335   8.537  0.00  0.00    +0.000 A 
ATOM     19  C   UNL     1      44.591   3.456   9.383  0.00  0.00    +0.000 A 
ATOM     20  C   UNL     1      44.892   2.085   9.337  0.00  0.00    +0.000 A 
ATOM     21  C   UNL     1      45.851   1.601   8.446  0.00  0.00    +0.000 A 
BRANCH  16  23
ATOM     22  N   UNL     1      48.332   1.593   5.964  0.00  0.00    +0.000 NA
ATOM     23  C   UNL     1      47.523   1.989   6.693  0.00  0.00    +0.000 C 
ENDBRANCH  16  23
ENDBRANCH  15  19
ENDBRANCH  14  15
ENDBRANCH   1  14
TORSDOF 5
ENDMDL
MODEL 4
REMARK VINA RESULT:    -7.254      2.029      3.807
REMARK INTER + INTRA:         -10.240
REMARK INTER:                  -9.576
REMARK INTRA:                  -0.664
REMARK UNBOUND:                -0.866
REMARK  Name = 
REMARK  5 active torsions:
REMARK  status: ('A' for Active; 'I' for Inactive)
REMARK    1  A    between atoms: C_2  and  C_3
REMARK    2  A    between atoms: C_6  and  C_7
REMARK    3  A    between atoms: C_7  and  O_8
REMARK    4  A    between atoms: O_8  and  C_9
REMARK    5  A    between atoms: C_13  and  C_14
REMARK                            x       y       z     vdW  Elec       q    Type
REMARK                         _______ _______ _______ _____ _____    ______ ____
ROOT
ATOM      1  C   UNL     1      45.579   5.714  11.862  0.00  0.00    +0.000 A 
ATOM      2  C   UNL     1      46.518   6.625  11.379  0.00  0.00    +0.000 A 
ATOM      3  C   UNL     1      47.680   6.887  12.103  0.00  0.00    +0.000 A 
ATOM      4  C   UNL     1      47.913   6.234  13.316  0.00  0.00    +0.000 A 
ATOM      5  C   UNL     1      47.004   5.290  13.826  0.00  0.00    +0.000 A 
ATOM      6  C   UNL     1      45.835   5.057  13.075  0.00  0.00    +0.000 A 
ATOM      7  F   UNL     1      44.955   4.149  13.529  0.00  0.00    +0.000 F 
ENDROOT
BRANCH   5   8
ATOM      8  C   UNL     1      47.289   4.527  15.067  0.00  0.00    +0.000 A 
ATOM      9  C   UNL     1      47.687   3.177  15.037  0.00  0.00    +0.000 A 
ATOM     10  C   UNL     1      48.054   2.493  16.198  0.00  0.00    +0.000 A 
ATOM     11  C   UNL     1      48.001   3.137  17.430  0.00  0.00    +0.000 A 
ATOM     12  C   UNL     1      47.575   4.459  17.497  0.00  0.00    +0.000 A 
ATOM     13  C   UNL     1      47.226   5.145  16.330  0.00  0.00    +0.000 A 
ENDBRANCH   5   8
BRANCH   1  14
ATOM     14  O   UNL     1      44.480   5.548  11.058  0.00  0.00    +0.000 OA
BRANCH  14  15
ATOM     15  C   UNL     1      44.112   4.200  10.756  0.00  0.00    +0.000 C 
BRANCH  15  19
ATOM     16  C   UNL     1      46.555   2.608   7.572  0.00  0.00    +0.000 A 
ATOM     17  C   UNL     1      46.357   3.990   7.671  0.00  0.00    +0.000 A 
ATOM     18  C   UNL     1      45.547   4.510   8.683  0.00  0.00    +0.000 A 
ATOM     19  C   UNL     1      44.920   3.657   9.600  0.00  0.00    +0.000 A 
ATOM     20  C   UNL     1      45.133   2.273   9.502  0.00  0.00    +0.000 A 
ATOM     21  C   UNL     1      45.942   1.751   8.491  0.00  0.00    +0.000 A 
BRANCH  16  23
ATOM     22  N   UNL     1      48.081   1.641   5.715  0.00  0.00    +0.000 NA
ATOM     23  C   UNL     1      47.398   2.075   6.544  0.00  0.00    +0.000 C 
ENDBRANCH  16  23
ENDBRANCH  15  19
ENDBRANCH  14  15
ENDBRANCH   1  14
TORSDOF 5
ENDMDL
MODEL 5
REMARK VINA RESULT:    -6.219      4.637      6.962
REMARK INTER + INTRA:          -8.903
REMARK INTER:                  -8.170
REMARK INTRA:                  -0.733
REMARK UNBOUND:                -0.866
REMARK  Name = 
REMARK  5 active torsions:
REMARK  status: ('A' for Active; 'I' for Inactive)
REMARK    1  A    between atoms: C_2  and  C_3
REMARK    2  A    between atoms: C_6  and  C_7
REMARK    3  A    between atoms: C_7  and  O_8
REMARK    4  A    between atoms: O_8  and  C_9
REMARK    5  A    between atoms: C_13  and  C_14
REMARK                            x       y       z     vdW  Elec       q    Type
REMARK                         _______ _______ _______ _____ _____    ______ ____
ROOT
ATOM      1  C   UNL     1      46.829   4.329  13.763  0.00  0.00    +0.000 A 
ATOM      2  C   UNL     1      45.792   3.858  12.958  0.00  0.00    +0.000 A 
ATOM      3  C   UNL     1      45.265   4.662  11.950  0.00  0.00    +0.000 A 
ATOM      4  C   UNL     1      45.777   5.945  11.735  0.00  0.00    +0.000 A 
ATOM      5  C   UNL     1      46.839   6.448  12.507  0.00  0.00    +0.000 A 
ATOM      6  C   UNL     1      47.341   5.613  13.526  0.00  0.00    +0.000 A 
ATOM      7  F   UNL     1      48.366   6.061  14.269  0.00  0.00    +0.000 F 
ENDROOT
BRANCH   5   8
ATOM      8  C   UNL     1      47.446   7.773  12.225  0.00  0.00    +0.000 A 
ATOM      9  C   UNL     1      48.754   7.900  11.718  0.00  0.00    +0.000 A 
ATOM     10  C   UNL     1      49.283   9.141  11.356  0.00  0.00    +0.000 A 
ATOM     11  C   UNL     1      48.526  10.295  11.525  0.00  0.00    +0.000 A 
ATOM     12  C   UNL     1      47.246  10.206  12.060  0.00  0.00    +0.000 A 
ATOM     13  C   UNL     1      46.713   8.960  12.403  0.00  0.00    +0.000 A 
ENDBRANCH   5   8
BRANCH   1  14
ATOM     14  O   UNL     1      47.257   3.443  14.719  0.00  0.00    +0.000 OA
BRANCH  14  15
ATOM     15  C   UNL     1      47.310   3.933  16.061  0.00  0.00    +0.000 C 
BRANCH  15  19
ATOM     16  C   UNL     1      51.197   3.127  17.758  0.00  0.00    +0.000 A 
ATOM     17  C   UNL     1      50.441   2.076  17.226  0.00  0.00    +0.000 A 
ATOM     18  C   UNL     1      49.172   2.326  16.698  0.00  0.00    +0.000 A 
ATOM     19  C   UNL     1      48.642   3.622  16.704  0.00  0.00    +0.000 A 
ATOM     20  C   UNL     1      49.412   4.673  17.230  0.00  0.00    +0.000 A 
ATOM     21  C   UNL     1      50.680   4.426  17.758  0.00  0.00    +0.000 A 
BRANCH  16  23
ATOM     22  N   UNL     1      53.564   2.674  18.712  0.00  0.00    +0.000 NA
ATOM     23  C   UNL     1      52.505   2.874  18.286  0.00  0.00    +0.000 C 
ENDBRANCH  16  23
ENDBRANCH  15  19
ENDBRANCH  14  15
ENDBRANCH   1  14
TORSDOF 5
ENDMDL
MODEL 6
REMARK VINA RESULT:    -6.120      4.853      7.895
REMARK INTER + INTRA:          -8.776
REMARK INTER:                  -7.975
REMARK INTRA:                  -0.800
REMARK UNBOUND:                -0.866
REMARK  Name = 
REMARK  5 active torsions:
REMARK  status: ('A' for Active; 'I' for Inactive)
REMARK    1  A    between atoms: C_2  and  C_3
REMARK    2  A    between atoms: C_6  and  C_7
REMARK    3  A    between atoms: C_7  and  O_8
REMARK    4  A    between atoms: O_8  and  C_9
REMARK    5  A    between atoms: C_13  and  C_14
REMARK                            x       y       z     vdW  Elec       q    Type
REMARK                         _______ _______ _______ _____ _____    ______ ____
ROOT
ATOM      1  C   UNL     1      48.185   6.707  14.525  0.00  0.00    +0.000 A 
ATOM      2  C   UNL     1      48.084   8.091  14.389  0.00  0.00    +0.000 A 
ATOM      3  C   UNL     1      47.137   8.645  13.530  0.00  0.00    +0.000 A 
ATOM      4  C   UNL     1      46.278   7.815  12.803  0.00  0.00    +0.000 A 
ATOM      5  C   UNL     1      46.330   6.416  12.931  0.00  0.00    +0.000 A 
ATOM      6  C   UNL     1      47.307   5.888  13.799  0.00  0.00    +0.000 A 
ATOM      7  F   UNL     1      47.369   4.556  13.954  0.00  0.00    +0.000 F 
ENDROOT
BRANCH   5   8
ATOM      8  C   UNL     1      45.362   5.535  12.232  0.00  0.00    +0.000 A 
ATOM      9  C   UNL     1      45.423   5.317  10.842  0.00  0.00    +0.000 A 
ATOM     10  C   UNL     1      44.576   4.407  10.203  0.00  0.00    +0.000 A 
ATOM     11  C   UNL     1      43.620   3.715  10.938  0.00  0.00    +0.000 A 
ATOM     12  C   UNL     1      43.509   3.937  12.306  0.00  0.00    +0.000 A 
ATOM     13  C   UNL     1      44.371   4.834  12.944  0.00  0.00    +0.000 A 
ENDBRANCH   5   8
BRANCH   1  14
ATOM     14  O   UNL     1      49.157   6.289  15.398  0.00  0.00    +0.000 OA
BRANCH  14  15
ATOM     15  C   UNL     1      48.704   5.708  16.623  0.00  0.00    +0.000 C 
BRANCH  15  19
ATOM     16  C   UNL     1      51.217   2.327  17.573  0.00  0.00    +0.000 A 
ATOM     17  C   UNL     1      49.918   2.115  17.098  0.00  0.00    +0.000 A 
ATOM     18  C   UNL     1      49.091   3.203  16.813  0.00  0.00    +0.000 A 
ATOM     19  C   UNL     1      49.548   4.513  17.007  0.00  0.00    +0.000 A 
ATOM     20  C   UNL     1      50.857   4.718  17.473  0.00  0.00    +0.000 A 
ATOM     21  C   UNL     1      51.684   3.632  17.759  0.00  0.00    +0.000 A 
BRANCH  16  23
ATOM     22  N   UNL     1      52.759   0.306  18.078  0.00  0.00    +0.000 NA
ATOM     23  C   UNL     1      52.071   1.211  17.851  0.00  0.00    +0.000 C 
ENDBRANCH  16  23
ENDBRANCH  15  19
ENDBRANCH  14  15
ENDBRANCH   1  14
TORSDOF 5
ENDMDL
MODEL 7
REMARK VINA RESULT:    -5.703      5.165      8.756
REMARK INTER + INTRA:          -8.236
REMARK INTER:                  -7.353
REMARK INTRA:                  -0.883
REMARK UNBOUND:                -0.866
REMARK  Name = 
REMARK  5 active torsions:
REMARK  status: ('A' for Active; 'I' for Inactive)
REMARK    1  A    between atoms: C_2  and  C_3
REMARK    2  A    between atoms: C_6  and  C_7
REMARK    3  A    between atoms: C_7  and  O_8
REMARK    4  A    between atoms: O_8  and  C_9
REMARK    5  A    between atoms: C_13  and  C_14
REMARK                            x       y       z     vdW  Elec       q    Type
REMARK                         _______ _______ _______ _____ _____    ______ ____
ROOT
ATOM      1  C   UNL     1      48.054   6.784  13.909  0.00  0.00    +0.000 A 
ATOM      2  C   UNL     1      47.712   8.131  13.792  0.00  0.00    +0.000 A 
ATOM      3  C   UNL     1      46.571   8.508  13.087  0.00  0.00    +0.000 A 
ATOM      4  C   UNL     1      45.757   7.536  12.497  0.00  0.00    +0.000 A 
ATOM      5  C   UNL     1      46.052   6.165  12.613  0.00  0.00    +0.000 A 
ATOM      6  C   UNL     1      47.220   5.820  13.322  0.00  0.00    +0.000 A 
ATOM      7  F   UNL     1      47.519   4.518  13.463  0.00  0.00    +0.000 F 
ENDROOT
BRANCH   5   8
ATOM      8  C   UNL     1      45.145   5.126  12.067  0.00  0.00    +0.000 A 
ATOM      9  C   UNL     1      45.028   4.893  10.683  0.00  0.00    +0.000 A 
ATOM     10  C   UNL     1      44.252   3.846  10.178  0.00  0.00    +0.000 A 
ATOM     11  C   UNL     1      43.545   3.023  11.047  0.00  0.00    +0.000 A 
ATOM     12  C   UNL     1      43.610   3.253  12.417  0.00  0.00    +0.000 A 
ATOM     13  C   UNL     1      44.402   4.289  12.919  0.00  0.00    +0.000 A 
ENDBRANCH   5   8
BRANCH   1  14
ATOM     14  O   UNL     1      49.201   6.547  14.623  0.00  0.00    +0.000 OA
BRANCH  14  15
ATOM     15  C   UNL     1      49.472   7.442  15.705  0.00  0.00    +0.000 C 
BRANCH  15  19
ATOM     16  C   UNL     1      48.531   5.745  19.562  0.00  0.00    +0.000 A 
ATOM     17  C   UNL     1      48.810   4.901  18.482  0.00  0.00    +0.000 A 
ATOM     18  C   UNL     1      49.090   5.442  17.225  0.00  0.00    +0.000 A 
ATOM     19  C   UNL     1      49.086   6.829  17.032  0.00  0.00    +0.000 A 
ATOM     20  C   UNL     1      48.816   7.671  18.124  0.00  0.00    +0.000 A 
ATOM     21  C   UNL     1      48.535   7.132  19.380  0.00  0.00    +0.000 A 
BRANCH  16  23
ATOM     22  N   UNL     1      48.043   4.744  21.902  0.00  0.00    +0.000 NA
ATOM     23  C   UNL     1      48.259   5.192  20.856  0.00  0.00    +0.000 C 
ENDBRANCH  16  23
ENDBRANCH  15  19
ENDBRANCH  14  15
ENDBRANCH   1  14
TORSDOF 5
ENDMDL
MODEL 8
REMARK VINA RESULT:    -5.683      5.047      6.915
REMARK INTER + INTRA:          -8.210
REMARK INTER:                  -7.437
REMARK INTRA:                  -0.773
REMARK UNBOUND:                -0.866
REMARK  Name = 
REMARK  5 active torsions:
REMARK  status: ('A' for Active; 'I' for Inactive)
REMARK    1  A    between atoms: C_2  and  C_3
REMARK    2  A    between atoms: C_6  and  C_7
REMARK    3  A    between atoms: C_7  and  O_8
REMARK    4  A    between atoms: O_8  and  C_9
REMARK    5  A    between atoms: C_13  and  C_14
REMARK                            x       y       z     vdW  Elec       q    Type
REMARK                         _______ _______ _______ _____ _____    ______ ____
ROOT
ATOM      1  C   UNL     1      48.906   7.084  15.326  0.00  0.00    +0.000 A 
ATOM      2  C   UNL     1      48.835   8.476  15.308  0.00  0.00    +0.000 A 
ATOM      3  C   UNL     1      48.640   9.186  16.492  0.00  0.00    +0.000 A 
ATOM      4  C   UNL     1      48.520   8.503  17.706  0.00  0.00    +0.000 A 
ATOM      5  C   UNL     1      48.611   7.101  17.771  0.00  0.00    +0.000 A 
ATOM      6  C   UNL     1      48.797   6.416  16.554  0.00  0.00    +0.000 A 
ATOM      7  F   UNL     1      48.904   5.077  16.587  0.00  0.00    +0.000 F 
ENDROOT
BRANCH   5   8
ATOM      8  C   UNL     1      48.575   6.379  19.067  0.00  0.00    +0.000 A 
ATOM      9  C   UNL     1      49.689   5.669  19.555  0.00  0.00    +0.000 A 
ATOM     10  C   UNL     1      49.685   5.078  20.821  0.00  0.00    +0.000 A 
ATOM     11  C   UNL     1      48.551   5.156  21.621  0.00  0.00    +0.000 A 
ATOM     12  C   UNL     1      47.421   5.817  21.151  0.00  0.00    +0.000 A 
ATOM     13  C   UNL     1      47.436   6.423  19.892  0.00  0.00    +0.000 A 
ENDBRANCH   5   8
BRANCH   1  14
ATOM     14  O   UNL     1      49.097   6.507  14.096  0.00  0.00    +0.000 OA
BRANCH  14  15
ATOM     15  C   UNL     1      48.332   7.047  13.015  0.00  0.00    +0.000 C 
BRANCH  15  19
ATOM     16  C   UNL     1      45.115   4.357  11.987  0.00  0.00    +0.000 A 
ATOM     17  C   UNL     1      45.404   5.444  11.154  0.00  0.00    +0.000 A 
ATOM     18  C   UNL     1      46.426   6.332  11.494  0.00  0.00    +0.000 A 
ATOM     19  C   UNL     1      47.164   6.151  12.671  0.00  0.00    +0.000 A 
ATOM     20  C   UNL     1      46.875   5.051  13.496  0.00  0.00    +0.000 A 
ATOM     21  C   UNL     1      45.853   4.163  13.158  0.00  0.00    +0.000 A 
BRANCH  16  23
ATOM     22  N   UNL     1      43.237   2.689  11.348  0.00  0.00    +0.000 NA
ATOM     23  C   UNL     1      44.076   3.436  11.632  0.00  0.00    +0.000 C 
ENDBRANCH  16  23
ENDBRANCH  15  19
ENDBRANCH  14  15
ENDBRANCH   1  14
TORSDOF 5
ENDMDL
MODEL 9
REMARK VINA RESULT:    -5.626      3.024      3.725
REMARK INTER + INTRA:          -8.137
REMARK INTER:                  -7.441
REMARK INTRA:                  -0.696
REMARK UNBOUND:                -0.866
REMARK  Name = 
REMARK  5 active torsions:
REMARK  status: ('A' for Active; 'I' for Inactive)
REMARK    1  A    between atoms: C_2  and  C_3
REMARK    2  A    between atoms: C_6  and  C_7
REMARK    3  A    between atoms: C_7  and  O_8
REMARK    4  A    between atoms: O_8  and  C_9
REMARK    5  A    between atoms: C_13  and  C_14
REMARK                            x       y       z     vdW  Elec       q    Type
REMARK                         _______ _______ _______ _____ _____    ______ ____
ROOT
ATOM      1  C   UNL     1      44.360   6.721  12.064  0.00  0.00    +0.000 A 
ATOM      2  C   UNL     1      45.514   6.836  12.838  0.00  0.00    +0.000 A 
ATOM      3  C   UNL     1      46.176   8.058  12.937  0.00  0.00    +0.000 A 
ATOM      4  C   UNL     1      45.683   9.179  12.263  0.00  0.00    +0.000 A 
ATOM      5  C   UNL     1      44.508   9.113  11.492  0.00  0.00    +0.000 A 
ATOM      6  C   UNL     1      43.870   7.859  11.405  0.00  0.00    +0.000 A 
ATOM      7  F   UNL     1      42.738   7.769  10.690  0.00  0.00    +0.000 F 
ENDROOT
BRANCH   5   8
ATOM      8  C   UNL     1      43.931  10.319  10.850  0.00  0.00    +0.000 A 
ATOM      9  C   UNL     1      44.263  10.692   9.533  0.00  0.00    +0.000 A 
ATOM     10  C   UNL     1      43.640  11.768   8.896  0.00  0.00    +0.000 A 
ATOM     11  C   UNL     1      42.689  12.522   9.575  0.00  0.00    +0.000 A 
ATOM     12  C   UNL     1      42.368  12.203  10.889  0.00  0.00    +0.000 A 
ATOM     13  C   UNL     1      42.980  11.113  11.516  0.00  0.00    +0.000 A 
ENDBRANCH   5   8
BRANCH   1  14
ATOM     14  O   UNL     1      43.806   5.466  12.048  0.00  0.00    +0.000 OA
BRANCH  14  15
ATOM     15  C   UNL     1      44.719   4.370  11.954  0.00  0.00    +0.000 C 
BRANCH  15  19
ATOM     16  C   UNL     1      45.877   3.436   7.901  0.00  0.00    +0.000 A 
ATOM     17  C   UNL     1      45.978   4.752   8.366  0.00  0.00    +0.000 A 
ATOM     18  C   UNL     1      45.581   5.066   9.667  0.00  0.00    +0.000 A 
ATOM     19  C   UNL     1      45.072   4.073  10.515  0.00  0.00    +0.000 A 
ATOM     20  C   UNL     1      44.985   2.753  10.045  0.00  0.00    +0.000 A 
ATOM     21  C   UNL     1      45.381   2.437   8.744  0.00  0.00    +0.000 A 
BRANCH  16  23
ATOM     22  N   UNL     1      46.636   2.842   5.495  0.00  0.00    +0.000 NA
ATOM     23  C   UNL     1      46.298   3.109   6.571  0.00  0.00    +0.000 C 
ENDBRANCH  16  23
ENDBRANCH  15  19
ENDBRANCH  14  15
ENDBRANCH   1  14
TORSDOF 5
ENDMDL
