MODEL 1
REMARK VINA RESULT:    -7.466      0.000      0.000
REMARK INTER + INTRA:         -11.273
REMARK INTER:                 -10.303
REMARK INTRA:                  -0.970
REMARK UNBOUND:                -0.970
REMARK  Name = 
REMARK  7 active torsions:
REMARK  status: ('A' for Active; 'I' for Inactive)
REMARK    1  A    between atoms: N_1  and  C_2
REMARK    2  A    between atoms: C_2  and  C_3
REMARK    3  A    between atoms: C_7  and  C_8
REMARK    4  A    between atoms: C_8  and  C_9
REMARK    5  A    between atoms: C_9  and  O_10
REMARK    6  A    between atoms: O_10  and  C_11
REMARK    7  A    between atoms: C_16  and  C_17
REMARK                            x       y       z     vdW  Elec       q    Type
REMARK                         _______ _______ _______ _____ _____    ______ ____
ROOT
ATOM      1  O   UNL     1      43.256   5.004  12.464  0.00  0.00    +0.000 OA
ENDROOT
BRANCH   1   2
ATOM      2  C   UNL     1      44.536   5.428  12.732  0.00  0.00    +0.000 A 
ATOM      3  C   UNL     1      45.119   6.579  12.201  0.00  0.00    +0.000 A 
ATOM      4  C   UNL     1      46.415   6.934  12.561  0.00  0.00    +0.000 A 
ATOM      5  C   UNL     1      47.135   6.173  13.484  0.00  0.00    +0.000 A 
ATOM      6 CL   UNL     1      48.741   6.726  13.819  0.00  0.00    +0.000 Cl
ATOM      7  C   UNL     1      46.561   5.032  14.061  0.00  0.00    +0.000 A 
ATOM      8  C   UNL     1      45.268   4.644  13.639  0.00  0.00    +0.000 A 
BRANCH   7   9
ATOM      9  C   UNL     1      47.247   4.232  15.118  0.00  0.00    +0.000 C 
ATOM     10  N   UNL     1      47.325   4.739  16.384  0.00  0.00    +0.000 N 
ATOM     11  O   UNL     1      47.703   3.107  14.890  0.00  0.00    +0.000 OA
ATOM     12  H   UNL     1      47.051   5.680  16.641  0.00  0.00    +0.000 HD
ATOM     13  H   UNL     1      47.876   4.212  17.054  0.00  0.00    +0.000 HD
ENDBRANCH   7   9
ENDBRANCH   1   2
BRANCH   1  14
ATOM     14  C   UNL     1      43.004   4.618  11.105  0.00  0.00    +0.000 C 
BRANCH  14  15
ATOM     15  C   UNL     1      43.629   3.252  10.813  0.00  0.00    +0.000 C 
BRANCH  15  20
ATOM     16  C   UNL     1      46.167   2.115   8.193  0.00  0.00    +0.000 A 
ATOM     17  C   UNL     1      46.488   3.326   7.569  0.00  0.00    +0.000 A 
ATOM     18  C   UNL     1      45.929   4.519   8.024  0.00  0.00    +0.000 A 
ATOM     19  C   UNL     1      45.027   4.509   9.091  0.00  0.00    +0.000 A 
ATOM     20  C   UNL     1      44.675   3.307   9.720  0.00  0.00    +0.000 A 
ATOM     21  C   UNL     1      45.271   2.116   9.274  0.00  0.00    +0.000 A 
BRANCH  16  22
ATOM     22  C   UNL     1      46.690   0.819   7.631  0.00  0.00    +0.000 C 
BRANCH  22  23
ATOM     23  N   UNL     1      47.835   1.076   6.765  0.00  0.00    +0.000 NA
ATOM     24  H   UNL     1      48.625   0.519   7.078  0.00  0.00    +0.000 HD
ATOM     25  H   UNL     1      48.110   2.053   6.865  0.00  0.00    +0.000 HD
ENDBRANCH  22  23
ENDBRANCH  16  22
ENDBRANCH  15  20
ENDBRANCH  14  15
ENDBRANCH   1  14
TORSDOF 7
ENDMDL
MODEL 2
REMARK VINA RESULT:    -7.305      3.061      6.549
REMARK INTER + INTRA:         -11.051
REMARK INTER:                 -10.323
REMARK INTRA:                  -0.728
REMARK UNBOUND:                -0.970
REMARK  Name = 
REMARK  7 active torsions:
REMARK  status: ('A' for Active; 'I' for Inactive)
REMARK    1  A    between atoms: N_1  and  C_2
REMARK    2  A    between atoms: C_2  and  C_3
REMARK    3  A    between atoms: C_7  and  C_8
REMARK    4  A    between atoms: C_8  and  C_9
REMARK    5  A    between atoms: C_9  and  O_10
REMARK    6  A    between atoms: O_10  and  C_11
REMARK    7  A    between atoms: C_16  and  C_17
REMARK                            x       y       z     vdW  Elec       q    Type
REMARK                         _______ _______ _______ _____ _____    ______ ____
ROOT
ATOM      1  O   UNL     1      44.186   4.883   9.372  0.00  0.00    +0.000 OA
ENDROOT
BRANCH   1   2
ATOM      2  C   UNL     1      44.780   3.705   8.986  0.00  0.00    +0.000 A 
ATOM      3  C   UNL     1      44.458   2.448   9.499  0.00  0.00    +0.000 A 
ATOM      4  C   UNL     1      45.101   1.313   9.016  0.00  0.00    +0.000 A 
ATOM      5  C   UNL     1      46.044   1.406   7.990  0.00  0.00    +0.000 A 
ATOM      6 CL   UNL     1      46.774  -0.087   7.508  0.00  0.00    +0.000 Cl
ATOM      7  C   UNL     1      46.360   2.652   7.432  0.00  0.00    +0.000 A 
ATOM      8  C   UNL     1      45.748   3.806   7.974  0.00  0.00    +0.000 A 
BRANCH   7   9
ATOM      9  C   UNL     1      47.291   2.802   6.275  0.00  0.00    +0.000 C 
ATOM     10  N   UNL     1      48.635   2.696   6.489  0.00  0.00    +0.000 N 
ATOM     11  O   UNL     1      46.876   2.974   5.124  0.00  0.00    +0.000 OA
ATOM     12  H   UNL     1      49.065   2.635   7.405  0.00  0.00    +0.000 HD
ATOM     13  H   UNL     1      49.241   2.894   5.699  0.00  0.00    +0.000 HD
ENDBRANCH   7   9
ENDBRANCH   1   2
BRANCH   1  14
ATOM     14  C   UNL     1      43.546   4.862  10.657  0.00  0.00    +0.000 C 
BRANCH  14  15
ATOM     15  C   UNL     1      43.766   6.191  11.384  0.00  0.00    +0.000 C 
BRANCH  15  20
ATOM     16  C   UNL     1      46.726   5.430  13.678  0.00  0.00    +0.000 A 
ATOM     17  C   UNL     1      47.708   6.284  13.161  0.00  0.00    +0.000 A 
ATOM     18  C   UNL     1      47.405   7.146  12.109  0.00  0.00    +0.000 A 
ATOM     19  C   UNL     1      46.126   7.145  11.548  0.00  0.00    +0.000 A 
ATOM     20  C   UNL     1      45.130   6.285  12.034  0.00  0.00    +0.000 A 
ATOM     21  C   UNL     1      45.439   5.446  13.117  0.00  0.00    +0.000 A 
BRANCH  16  22
ATOM     22  C   UNL     1      47.088   4.427  14.742  0.00  0.00    +0.000 C 
BRANCH  22  23
ATOM     23  N   UNL     1      47.261   3.107  14.148  0.00  0.00    +0.000 NA
ATOM     24  H   UNL     1      48.250   2.942  13.979  0.00  0.00    +0.000 HD
ATOM     25  H   UNL     1      46.804   3.095  13.237  0.00  0.00    +0.000 HD
ENDBRANCH  22  23
ENDBRANCH  16  22
ENDBRANCH  15  20
ENDBRANCH  14  15
ENDBRANCH   1  14
TORSDOF 7
ENDMDL
MODEL 3
REMARK VINA RESULT:    -7.264      2.058      2.777
REMARK INTER + INTRA:         -10.995
REMARK INTER:                 -10.204
REMARK INTRA:                  -0.790
REMARK UNBOUND:                -0.970
REMARK  Name = 
REMARK  7 active torsions:
REMARK  status: ('A' for Active; 'I' for Inactive)
REMARK    1  A    between atoms: N_1  and  C_2
REMARK    2  A    between atoms: C_2  and  C_3
REMARK    3  A    between atoms: C_7  and  C_8
REMARK    4  A    between atoms: C_8  and  C_9
REMARK    5  A    between atoms: C_9  and  O_10
REMARK    6  A    between atoms: O_10  and  C_11
REMARK    7  A    between atoms: C_16  and  C_17
REMARK                            x       y       z     vdW  Elec       q    Type
REMARK                         _______ _______ _______ _____ _____    ______ ____
ROOT
ATOM      1  O   UNL     1      43.938   3.486  12.734  0.00  0.00    +0.000 OA
ENDROOT
BRANCH   1   2
ATOM      2  C   UNL     1      44.889   4.463  12.900  0.00  0.00    +0.000 A 
ATOM      3  C   UNL     1      46.204   4.231  13.304  0.00  0.00    +0.000 A 
ATOM      4  C   UNL     1      47.098   5.292  13.413  0.00  0.00    +0.000 A 
ATOM      5  C   UNL     1      46.708   6.592  13.083  0.00  0.00    +0.000 A 
ATOM      6 CL   UNL     1      47.921   7.810  13.287  0.00  0.00    +0.000 Cl
ATOM      7  C   UNL     1      45.404   6.849  12.640  0.00  0.00    +0.000 A 
ATOM      8  C   UNL     1      44.485   5.774  12.595  0.00  0.00    +0.000 A 
BRANCH   7   9
ATOM      9  C   UNL     1      44.958   8.200  12.189  0.00  0.00    +0.000 C 
ATOM     10  N   UNL     1      44.093   8.294  11.136  0.00  0.00    +0.000 N 
ATOM     11  O   UNL     1      45.313   9.230  12.770  0.00  0.00    +0.000 OA
ATOM     12  H   UNL     1      43.814   7.512  10.555  0.00  0.00    +0.000 HD
ATOM     13  H   UNL     1      43.883   9.227  10.799  0.00  0.00    +0.000 HD
ENDBRANCH   7   9
ENDBRANCH   1   2
BRANCH   1  14
ATOM     14  C   UNL     1      43.323   3.433  11.437  0.00  0.00    +0.000 C 
BRANCH  14  15
ATOM     15  C   UNL     1      43.915   2.287  10.613  0.00  0.00    +0.000 C 
BRANCH  15  20
ATOM     16  C   UNL     1      46.465   2.225   7.768  0.00  0.00    +0.000 A 
ATOM     17  C   UNL     1      46.580   3.587   7.465  0.00  0.00    +0.000 A 
ATOM     18  C   UNL     1      45.879   4.533   8.210  0.00  0.00    +0.000 A 
ATOM     19  C   UNL     1      45.039   4.126   9.249  0.00  0.00    +0.000 A 
ATOM     20  C   UNL     1      44.891   2.766   9.559  0.00  0.00    +0.000 A 
ATOM     21  C   UNL     1      45.629   1.826   8.822  0.00  0.00    +0.000 A 
BRANCH  16  22
ATOM     22  C   UNL     1      47.141   1.202   6.893  0.00  0.00    +0.000 C 
BRANCH  22  23
ATOM     23  N   UNL     1      48.211   1.828   6.126  0.00  0.00    +0.000 NA
ATOM     24  H   UNL     1      49.071   1.803   6.667  0.00  0.00    +0.000 HD
ATOM     25  H   UNL     1      47.983   2.812   5.988  0.00  0.00    +0.000 HD
ENDBRANCH  22  23
ENDBRANCH  16  22
ENDBRANCH  15  20
ENDBRANCH  14  15
ENDBRANCH   1  14
TORSDOF 7
ENDMDL
MODEL 4
REMARK VINA RESULT:    -7.143      3.128      6.451
REMARK INTER + INTRA:         -10.827
REMARK INTER:                 -10.217
REMARK INTRA:                  -0.610
REMARK UNBOUND:                -0.970
REMARK  Name = 
REMARK  7 active torsions:
REMARK  status: ('A' for Active; 'I' for Inactive)
REMARK    1  A    between atoms: N_1  and  C_2
REMARK    2  A    between atoms: C_2  and  C_3
REMARK    3  A    between atoms: C_7  and  C_8
REMARK    4  A    between atoms: C_8  and  C_9
REMARK    5  A    between atoms: C_9  and  O_10
REMARK    6  A    between atoms: O_10  and  C_11
REMARK    7  A    between atoms: C_16  and  C_17
REMARK                            x       y       z     vdW  Elec       q    Type
REMARK                         _______ _______ _______ _____ _____    ______ ____
ROOT
ATOM      1  O   UNL     1      43.702   2.396  10.768  0.00  0.00    +0.000 OA
ENDROOT
BRANCH   1   2
ATOM      2  C   UNL     1      44.430   2.744   9.655  0.00  0.00    +0.000 A 
ATOM      3  C   UNL     1      44.462   4.022   9.095  0.00  0.00    +0.000 A 
ATOM      4  C   UNL     1      45.257   4.275   7.982  0.00  0.00    +0.000 A 
ATOM      5  C   UNL     1      46.062   3.274   7.434  0.00  0.00    +0.000 A 
ATOM      6 CL   UNL     1      46.981   3.731   6.041  0.00  0.00    +0.000 Cl
ATOM      7  C   UNL     1      46.076   1.991   7.998  0.00  0.00    +0.000 A 
ATOM      8  C   UNL     1      45.216   1.726   9.089  0.00  0.00    +0.000 A 
BRANCH   7   9
ATOM      9  C   UNL     1      46.982   0.908   7.513  0.00  0.00    +0.000 C 
ATOM     10  N   UNL     1      46.591  -0.393   7.652  0.00  0.00    +0.000 N 
ATOM     11  O   UNL     1      48.051   1.158   6.948  0.00  0.00    +0.000 OA
ATOM     12  H   UNL     1      45.773  -0.692   8.171  0.00  0.00    +0.000 HD
ATOM     13  H   UNL     1      47.268  -1.104   7.396  0.00  0.00    +0.000 HD
ENDBRANCH   7   9
ENDBRANCH   1   2
BRANCH   1  14
ATOM     14  C   UNL     1      43.205   3.492  11.551  0.00  0.00    +0.000 C 
BRANCH  14  15
ATOM     15  C   UNL     1      43.996   3.616  12.855  0.00  0.00    +0.000 C 
BRANCH  15  20
ATOM     16  C   UNL     1      45.545   7.061  12.272  0.00  0.00    +0.000 A 
ATOM     17  C   UNL     1      46.795   6.914  12.886  0.00  0.00    +0.000 A 
ATOM     18  C   UNL     1      47.163   5.691  13.443  0.00  0.00    +0.000 A 
ATOM     19  C   UNL     1      46.278   4.610  13.411  0.00  0.00    +0.000 A 
ATOM     20  C   UNL     1      45.014   4.737  12.819  0.00  0.00    +0.000 A 
ATOM     21  C   UNL     1      44.668   5.966  12.232  0.00  0.00    +0.000 A 
BRANCH  16  22
ATOM     22  C   UNL     1      45.111   8.412  11.767  0.00  0.00    +0.000 C 
BRANCH  22  23
ATOM     23  N   UNL     1      44.945   9.334  12.885  0.00  0.00    +0.000 NA
ATOM     24  H   UNL     1      45.113   8.838  13.756  0.00  0.00    +0.000 HD
ATOM     25  H   UNL     1      43.976   9.648  12.910  0.00  0.00    +0.000 HD
ENDBRANCH  22  23
ENDBRANCH  16  22
ENDBRANCH  15  20
ENDBRANCH  14  15
ENDBRANCH   1  14
TORSDOF 7
ENDMDL
MODEL 5
REMARK VINA RESULT:    -6.768      2.013      2.168
REMARK INTER + INTRA:         -10.310
REMARK INTER:                  -9.474
REMARK INTRA:                  -0.836
REMARK UNBOUND:                -0.970
REMARK  Name = 
REMARK  7 active torsions:
REMARK  status: ('A' for Active; 'I' for Inactive)
REMARK    1  A    between atoms: N_1  and  C_2
REMARK    2  A    between atoms: C_2  and  C_3
REMARK    3  A    between atoms: C_7  and  C_8
REMARK    4  A    between atoms: C_8  and  C_9
REMARK    5  A    between atoms: C_9  and  O_10
REMARK    6  A    between atoms: O_10  and  C_11
REMARK    7  A    between atoms: C_16  and  C_17
REMARK                            x       y       z     vdW  Elec       q    Type
REMARK                         _______ _______ _______ _____ _____    ______ ____
ROOT
ATOM      1  O   UNL     1      44.538   4.645  12.121  0.00  0.00    +0.000 OA
ENDROOT
BRANCH   1   2
ATOM      2  C   UNL     1      45.224   5.836  12.119  0.00  0.00    +0.000 A 
ATOM      3  C   UNL     1      44.660   7.077  11.822  0.00  0.00    +0.000 A 
ATOM      4  C   UNL     1      45.439   8.228  11.877  0.00  0.00    +0.000 A 
ATOM      5  C   UNL     1      46.778   8.168  12.268  0.00  0.00    +0.000 A 
ATOM      6 CL   UNL     1      47.625   9.678  12.271  0.00  0.00    +0.000 Cl
ATOM      7  C   UNL     1      47.361   6.939  12.607  0.00  0.00    +0.000 A 
ATOM      8  C   UNL     1      46.579   5.767  12.485  0.00  0.00    +0.000 A 
BRANCH   7   9
ATOM      9  C   UNL     1      48.760   6.825  13.117  0.00  0.00    +0.000 C 
ATOM     10  N   UNL     1      49.797   7.016  12.251  0.00  0.00    +0.000 N 
ATOM     11  O   UNL     1      49.001   6.609  14.309  0.00  0.00    +0.000 OA
ATOM     12  H   UNL     1      49.693   7.118  11.248  0.00  0.00    +0.000 HD
ATOM     13  H   UNL     1      50.731   6.841  12.610  0.00  0.00    +0.000 HD
ENDBRANCH   7   9
ENDBRANCH   1   2
BRANCH   1  14
ATOM     14  C   UNL     1      43.675   4.426  10.995  0.00  0.00    +0.000 C 
BRANCH  14  15
ATOM     15  C   UNL     1      44.005   3.092  10.321  0.00  0.00    +0.000 C 
BRANCH  15  20
ATOM     16  C   UNL     1      46.553   2.142   7.637  0.00  0.00    +0.000 A 
ATOM     17  C   UNL     1      46.923   3.399   7.144  0.00  0.00    +0.000 A 
ATOM     18  C   UNL     1      46.394   4.558   7.709  0.00  0.00    +0.000 A 
ATOM     19  C   UNL     1      45.474   4.470   8.756  0.00  0.00    +0.000 A 
ATOM     20  C   UNL     1      45.073   3.223   9.255  0.00  0.00    +0.000 A 
ATOM     21  C   UNL     1      45.639   2.064   8.699  0.00  0.00    +0.000 A 
BRANCH  16  22
ATOM     22  C   UNL     1      47.045   0.893   6.953  0.00  0.00    +0.000 C 
BRANCH  22  23
ATOM     23  N   UNL     1      46.791  -0.271   7.794  0.00  0.00    +0.000 NA
ATOM     24  H   UNL     1      45.974  -0.764   7.446  0.00  0.00    +0.000 HD
ATOM     25  H   UNL     1      46.560   0.048   8.735  0.00  0.00    +0.000 HD
ENDBRANCH  22  23
ENDBRANCH  16  22
ENDBRANCH  15  20
ENDBRANCH  14  15
ENDBRANCH   1  14
TORSDOF 7
ENDMDL
MODEL 6
REMARK VINA RESULT:    -6.711      2.776      6.410
REMARK INTER + INTRA:         -10.231
REMARK INTER:                  -9.925
REMARK INTRA:                  -0.306
REMARK UNBOUND:                -0.970
REMARK  Name = 
REMARK  7 active torsions:
REMARK  status: ('A' for Active; 'I' for Inactive)
REMARK    1  A    between atoms: N_1  and  C_2
REMARK    2  A    between atoms: C_2  and  C_3
REMARK    3  A    between atoms: C_7  and  C_8
REMARK    4  A    between atoms: C_8  and  C_9
REMARK    5  A    between atoms: C_9  and  O_10
REMARK    6  A    between atoms: O_10  and  C_11
REMARK    7  A    between atoms: C_16  and  C_17
REMARK                            x       y       z     vdW  Elec       q    Type
REMARK                         _______ _______ _______ _____ _____    ______ ____
ROOT
ATOM      1  O   UNL     1      43.662   2.485  10.930  0.00  0.00    +0.000 OA
ENDROOT
BRANCH   1   2
ATOM      2  C   UNL     1      44.345   2.792   9.778  0.00  0.00    +0.000 A 
ATOM      3  C   UNL     1      44.324   4.038   9.150  0.00  0.00    +0.000 A 
ATOM      4  C   UNL     1      45.077   4.252   8.000  0.00  0.00    +0.000 A 
ATOM      5  C   UNL     1      45.892   3.244   7.480  0.00  0.00    +0.000 A 
ATOM      6 CL   UNL     1      46.753   3.650   6.035  0.00  0.00    +0.000 Cl
ATOM      7  C   UNL     1      45.959   1.994   8.110  0.00  0.00    +0.000 A 
ATOM      8  C   UNL     1      45.141   1.766   9.241  0.00  0.00    +0.000 A 
BRANCH   7   9
ATOM      9  C   UNL     1      46.879   0.911   7.653  0.00  0.00    +0.000 C 
ATOM     10  N   UNL     1      48.063   1.253   7.066  0.00  0.00    +0.000 N 
ATOM     11  O   UNL     1      46.619  -0.283   7.834  0.00  0.00    +0.000 OA
ATOM     12  H   UNL     1      48.321   2.198   6.808  0.00  0.00    +0.000 HD
ATOM     13  H   UNL     1      48.621   0.494   6.686  0.00  0.00    +0.000 HD
ENDBRANCH   7   9
ENDBRANCH   1   2
BRANCH   1  14
ATOM     14  C   UNL     1      43.827   3.413  12.014  0.00  0.00    +0.000 C 
BRANCH  14  15
ATOM     15  C   UNL     1      45.299   3.496  12.424  0.00  0.00    +0.000 C 
BRANCH  15  20
ATOM     16  C   UNL     1      47.363   6.501  13.571  0.00  0.00    +0.000 A 
ATOM     17  C   UNL     1      46.862   7.516  12.747  0.00  0.00    +0.000 A 
ATOM     18  C   UNL     1      45.823   7.249  11.858  0.00  0.00    +0.000 A 
ATOM     19  C   UNL     1      45.290   5.961  11.768  0.00  0.00    +0.000 A 
ATOM     20  C   UNL     1      45.788   4.922  12.568  0.00  0.00    +0.000 A 
ATOM     21  C   UNL     1      46.813   5.213  13.484  0.00  0.00    +0.000 A 
BRANCH  16  22
ATOM     22  C   UNL     1      48.555   6.769  14.451  0.00  0.00    +0.000 C 
BRANCH  22  23
ATOM     23  N   UNL     1      48.289   6.308  15.809  0.00  0.00    +0.000 NA
ATOM     24  H   UNL     1      47.805   7.039  16.322  0.00  0.00    +0.000 HD
ATOM     25  H   UNL     1      49.178   6.158  16.285  0.00  0.00    +0.000 HD
ENDBRANCH  22  23
ENDBRANCH  16  22
ENDBRANCH  15  20
ENDBRANCH  14  15
ENDBRANCH   1  14
TORSDOF 7
ENDMDL
MODEL 7
REMARK VINA RESULT:    -6.589      3.610      7.134
REMARK INTER + INTRA:         -10.062
REMARK INTER:                  -9.531
REMARK INTRA:                  -0.531
REMARK UNBOUND:                -0.970
REMARK  Name = 
REMARK  7 active torsions:
REMARK  status: ('A' for Active; 'I' for Inactive)
REMARK    1  A    between atoms: N_1  and  C_2
REMARK    2  A    between atoms: C_2  and  C_3
REMARK    3  A    between atoms: C_7  and  C_8
REMARK    4  A    between atoms: C_8  and  C_9
REMARK    5  A    between atoms: C_9  and  O_10
REMARK    6  A    between atoms: O_10  and  C_11
REMARK    7  A    between atoms: C_16  and  C_17
REMARK                            x       y       z     vdW  Elec       q    Type
REMARK                         _______ _______ _______ _____ _____    ______ ____
ROOT
ATOM      1  O   UNL     1      44.333   5.013   9.386  0.00  0.00    +0.000 OA
ENDROOT
BRANCH   1   2
ATOM      2  C   UNL     1      44.877   3.810   9.001  0.00  0.00    +0.000 A 
ATOM      3  C   UNL     1      44.505   2.569   9.517  0.00  0.00    +0.000 A 
ATOM      4  C   UNL     1      45.100   1.407   9.036  0.00  0.00    +0.000 A 
ATOM      5  C   UNL     1      46.044   1.459   8.008  0.00  0.00    +0.000 A 
ATOM      6 CL   UNL     1      46.711  -0.064   7.528  0.00  0.00    +0.000 Cl
ATOM      7  C   UNL     1      46.411   2.690   7.447  0.00  0.00    +0.000 A 
ATOM      8  C   UNL     1      45.848   3.870   7.987  0.00  0.00    +0.000 A 
BRANCH   7   9
ATOM      9  C   UNL     1      47.345   2.800   6.287  0.00  0.00    +0.000 C 
ATOM     10  N   UNL     1      48.665   2.508   6.473  0.00  0.00    +0.000 N 
ATOM     11  O   UNL     1      46.947   3.102   5.158  0.00  0.00    +0.000 OA
ATOM     12  H   UNL     1      49.091   2.330   7.375  0.00  0.00    +0.000 HD
ATOM     13  H   UNL     1      49.286   2.681   5.688  0.00  0.00    +0.000 HD
ENDBRANCH   7   9
ENDBRANCH   1   2
BRANCH   1  14
ATOM     14  C   UNL     1      43.768   5.043  10.705  0.00  0.00    +0.000 C 
BRANCH  14  15
ATOM     15  C   UNL     1      44.877   5.099  11.759  0.00  0.00    +0.000 C 
BRANCH  15  20
ATOM     16  C   UNL     1      45.381   8.886  11.842  0.00  0.00    +0.000 A 
ATOM     17  C   UNL     1      46.754   8.981  12.100  0.00  0.00    +0.000 A 
ATOM     18  C   UNL     1      47.531   7.827  12.194  0.00  0.00    +0.000 A 
ATOM     19  C   UNL     1      46.939   6.570  12.056  0.00  0.00    +0.000 A 
ATOM     20  C   UNL     1      45.563   6.448  11.816  0.00  0.00    +0.000 A 
ATOM     21  C   UNL     1      44.797   7.619  11.690  0.00  0.00    +0.000 A 
BRANCH  16  22
ATOM     22  C   UNL     1      44.529  10.128  11.846  0.00  0.00    +0.000 C 
BRANCH  22  23
ATOM     23  N   UNL     1      45.339  11.288  12.201  0.00  0.00    +0.000 NA
ATOM     24  H   UNL     1      44.747  11.989  12.639  0.00  0.00    +0.000 HD
ATOM     25  H   UNL     1      45.704  11.708  11.347  0.00  0.00    +0.000 HD
ENDBRANCH  22  23
ENDBRANCH  16  22
ENDBRANCH  15  20
ENDBRANCH  14  15
ENDBRANCH   1  14
TORSDOF 7
ENDMDL
MODEL 8
REMARK VINA RESULT:    -6.258      2.004      2.965
REMARK INTER + INTRA:          -9.607
REMARK INTER:                  -9.116
REMARK INTRA:                  -0.490
REMARK UNBOUND:                -0.970
REMARK  Name = 
REMARK  7 active torsions:
REMARK  status: ('A' for Active; 'I' for Inactive)
REMARK    1  A    between atoms: N_1  and  C_2
REMARK    2  A    between atoms: C_2  and  C_3
REMARK    3  A    between atoms: C_7  and  C_8
REMARK    4  A    between atoms: C_8  and  C_9
REMARK    5  A    between atoms: C_9  and  O_10
REMARK    6  A    between atoms: O_10  and  C_11
REMARK    7  A    between atoms: C_16  and  C_17
REMARK                            x       y       z     vdW  Elec       q    Type
REMARK                         _______ _______ _______ _____ _____    ______ ____
ROOT
ATOM      1  O   UNL     1      46.758   5.649  12.626  0.00  0.00    +0.000 OA
ENDROOT
BRANCH   1   2
ATOM      2  C   UNL     1      47.410   5.720  13.835  0.00  0.00    +0.000 A 
ATOM      3  C   UNL     1      48.155   6.815  14.272  0.00  0.00    +0.000 A 
ATOM      4  C   UNL     1      48.752   6.795  15.528  0.00  0.00    +0.000 A 
ATOM      5  C   UNL     1      48.584   5.704  16.383  0.00  0.00    +0.000 A 
ATOM      6 CL   UNL     1      49.402   5.813  17.905  0.00  0.00    +0.000 Cl
ATOM      7  C   UNL     1      47.811   4.605  15.984  0.00  0.00    +0.000 A 
ATOM      8  C   UNL     1      47.262   4.608  14.680  0.00  0.00    +0.000 A 
BRANCH   7   9
ATOM      9  C   UNL     1      47.522   3.453  16.887  0.00  0.00    +0.000 C 
ATOM     10  N   UNL     1      48.553   2.649  17.284  0.00  0.00    +0.000 N 
ATOM     11  O   UNL     1      46.387   3.235  17.321  0.00  0.00    +0.000 OA
ATOM     12  H   UNL     1      49.496   2.705  16.917  0.00  0.00    +0.000 HD
ATOM     13  H   UNL     1      48.308   1.824  17.822  0.00  0.00    +0.000 HD
ENDBRANCH   7   9
ENDBRANCH   1   2
BRANCH   1  14
ATOM     14  C   UNL     1      45.381   6.054  12.641  0.00  0.00    +0.000 C 
BRANCH  14  15
ATOM     15  C   UNL     1      44.856   6.209  11.212  0.00  0.00    +0.000 C 
BRANCH  15  20
ATOM     16  C   UNL     1      45.226   3.501   8.542  0.00  0.00    +0.000 A 
ATOM     17  C   UNL     1      44.645   2.397   9.179  0.00  0.00    +0.000 A 
ATOM     18  C   UNL     1      44.085   2.535  10.448  0.00  0.00    +0.000 A 
ATOM     19  C   UNL     1      44.121   3.770  11.100  0.00  0.00    +0.000 A 
ATOM     20  C   UNL     1      44.714   4.885  10.492  0.00  0.00    +0.000 A 
ATOM     21  C   UNL     1      45.245   4.741   9.199  0.00  0.00    +0.000 A 
BRANCH  16  22
ATOM     22  C   UNL     1      45.923   3.322   7.219  0.00  0.00    +0.000 C 
BRANCH  22  23
ATOM     23  N   UNL     1      46.992   4.303   7.080  0.00  0.00    +0.000 NA
ATOM     24  H   UNL     1      46.964   4.700   6.145  0.00  0.00    +0.000 HD
ATOM     25  H   UNL     1      47.889   3.826   7.167  0.00  0.00    +0.000 HD
ENDBRANCH  22  23
ENDBRANCH  16  22
ENDBRANCH  15  20
ENDBRANCH  14  15
ENDBRANCH   1  14
TORSDOF 7
ENDMDL
MODEL 9
REMARK VINA RESULT:    -6.076      3.610      7.088
REMARK INTER + INTRA:          -9.355
REMARK INTER:                  -8.463
REMARK INTRA:                  -0.892
REMARK UNBOUND:                -0.970
REMARK  Name = 
REMARK  7 active torsions:
REMARK  status: ('A' for Active; 'I' for Inactive)
REMARK    1  A    between atoms: N_1  and  C_2
REMARK    2  A    between atoms: C_2  and  C_3
REMARK    3  A    between atoms: C_7  and  C_8
REMARK    4  A    between atoms: C_8  and  C_9
REMARK    5  A    between atoms: C_9  and  O_10
REMARK    6  A    between atoms: O_10  and  C_11
REMARK    7  A    between atoms: C_16  and  C_17
REMARK                            x       y       z     vdW  Elec       q    Type
REMARK                         _______ _______ _______ _____ _____    ______ ____
ROOT
ATOM      1  O   UNL     1      48.834   6.230  13.368  0.00  0.00    +0.000 OA
ENDROOT
BRANCH   1   2
ATOM      2  C   UNL     1      47.543   6.292  12.900  0.00  0.00    +0.000 A 
ATOM      3  C   UNL     1      47.018   7.350  12.156  0.00  0.00    +0.000 A 
ATOM      4  C   UNL     1      45.703   7.300  11.705  0.00  0.00    +0.000 A 
ATOM      5  C   UNL     1      44.904   6.182  11.953  0.00  0.00    +0.000 A 
ATOM      6 CL   UNL     1      43.285   6.272  11.348  0.00  0.00    +0.000 Cl
ATOM      7  C   UNL     1      45.417   5.090  12.667  0.00  0.00    +0.000 A 
ATOM      8  C   UNL     1      46.733   5.178  13.176  0.00  0.00    +0.000 A 
BRANCH   7   9
ATOM      9  C   UNL     1      44.640   3.833  12.884  0.00  0.00    +0.000 C 
ATOM     10  N   UNL     1      45.105   2.668  12.344  0.00  0.00    +0.000 N 
ATOM     11  O   UNL     1      43.617   3.812  13.575  0.00  0.00    +0.000 OA
ATOM     12  H   UNL     1      45.886   2.607  11.702  0.00  0.00    +0.000 HD
ATOM     13  H   UNL     1      44.506   1.853  12.433  0.00  0.00    +0.000 HD
ENDBRANCH   7   9
ENDBRANCH   1   2
BRANCH   1  14
ATOM     14  C   UNL     1      49.283   7.379  14.102  0.00  0.00    +0.000 C 
BRANCH  14  15
ATOM     15  C   UNL     1      48.720   7.357  15.525  0.00  0.00    +0.000 C 
BRANCH  15  20
ATOM     16  C   UNL     1      48.796   3.918  17.189  0.00  0.00    +0.000 A 
ATOM     17  C   UNL     1      50.115   3.862  17.657  0.00  0.00    +0.000 A 
ATOM     18  C   UNL     1      50.966   4.952  17.485  0.00  0.00    +0.000 A 
ATOM     19  C   UNL     1      50.516   6.097  16.824  0.00  0.00    +0.000 A 
ATOM     20  C   UNL     1      49.206   6.170  16.330  0.00  0.00    +0.000 A 
ATOM     21  C   UNL     1      48.348   5.078  16.539  0.00  0.00    +0.000 A 
BRANCH  16  22
ATOM     22  C   UNL     1      47.915   2.700  17.282  0.00  0.00    +0.000 C 
BRANCH  22  23
ATOM     23  N   UNL     1      46.557   3.092  17.640  0.00  0.00    +0.000 NA
ATOM     24  H   UNL     1      46.205   2.465  18.358  0.00  0.00    +0.000 HD
ATOM     25  H   UNL     1      45.955   2.970  16.826  0.00  0.00    +0.000 HD
ENDBRANCH  22  23
ENDBRANCH  16  22
ENDBRANCH  15  20
ENDBRANCH  14  15
ENDBRANCH   1  14
TORSDOF 7
ENDMDL
