MODEL 1
REMARK VINA RESULT:    -7.729      0.000      0.000
REMARK INTER + INTRA:         -12.121
REMARK INTER:                 -10.891
REMARK INTRA:                  -1.230
REMARK UNBOUND:                -1.230
REMARK  Name = 
REMARK  7 active torsions:
REMARK  status: ('A' for Active; 'I' for Inactive)
REMARK    1  A    between atoms: C_2  and  C_4
REMARK    2  A    between atoms: C_8  and  C_9
REMARK    3  A    between atoms: N_11  and  C_12
REMARK    4  A    between atoms: C_12  and  C_13
REMARK    5  A    between atoms: C_16  and  C_17
REMARK    6  A    between atoms: C_17  and  N_18
REMARK    7  A    between atoms: C_19  and  C_21
REMARK                            x       y       z     vdW  Elec       q    Type
REMARK                         _______ _______ _______ _____ _____    ______ ____
ROOT
ATOM      1  C   UNL     1      46.154   7.458  11.828  0.00  0.00    +0.000 A 
ATOM      2  C   UNL     1      47.391   6.802  11.770  0.00  0.00    +0.000 A 
ATOM      3  C   UNL     1      48.451   7.201  12.592  0.00  0.00    +0.000 A 
ATOM      4  C   UNL     1      48.292   8.254  13.503  0.00  0.00    +0.000 A 
ATOM      5  C   UNL     1      47.066   8.933  13.535  0.00  0.00    +0.000 A 
ATOM      6  C   UNL     1      46.006   8.533  12.716  0.00  0.00    +0.000 A 
ENDROOT
BRANCH   1   7
ATOM      7  C   UNL     1      44.977   6.963  11.021  0.00  0.00    +0.000 C 
BRANCH   7  10
ATOM      8  C   UNL     1      44.414   4.837   9.884  0.00  0.00    +0.000 C 
ATOM      9  O   UNL     1      43.215   4.922  10.122  0.00  0.00    +0.000 OA
ATOM     10  N   UNL     1      45.342   5.773  10.286  0.00  0.00    +0.000 N 
ATOM     11  H   UNL     1      46.329   5.558  10.231  0.00  0.00    +0.000 HD
BRANCH   8  16
ATOM     12  C   UNL     1      46.355   2.713   7.393  0.00  0.00    +0.000 A 
ATOM     13  C   UNL     1      46.032   1.422   7.828  0.00  0.00    +0.000 A 
ATOM     14  C   UNL     1      45.153   1.250   8.900  0.00  0.00    +0.000 A 
ATOM     15  C   UNL     1      44.613   2.364   9.554  0.00  0.00    +0.000 A 
ATOM     16  C   UNL     1      44.963   3.658   9.146  0.00  0.00    +0.000 A 
ATOM     17  C   UNL     1      45.817   3.826   8.050  0.00  0.00    +0.000 A 
BRANCH  12  19
ATOM     18  N   UNL     1      48.621   2.727   6.497  0.00  0.00    +0.000 N 
ATOM     19  C   UNL     1      47.295   2.961   6.273  0.00  0.00    +0.000 C 
ATOM     20  O   UNL     1      46.894   3.327   5.174  0.00  0.00    +0.000 OA
ATOM     21  H   UNL     1      49.230   2.801   5.691  0.00  0.00    +0.000 HD
ATOM     22  H   UNL     1      48.955   2.194   7.286  0.00  0.00    +0.000 HD
ENDBRANCH  12  19
ENDBRANCH   8  16
ENDBRANCH   7  10
ENDBRANCH   1   7
BRANCH   4  23
ATOM     23  C   UNL     1      49.413   8.658  14.426  0.00  0.00    +0.000 C 
BRANCH  23  24
ATOM     24  N   UNL     1      49.484   7.806  15.586  0.00  0.00    +0.000 N 
ATOM     25  C   UNL     1      48.839   8.140  16.750  0.00  0.00    +0.000 C 
ATOM     26  O   UNL     1      48.139   9.145  16.842  0.00  0.00    +0.000 OA
ATOM     27  H   UNL     1      50.226   7.114  15.604  0.00  0.00    +0.000 HD
BRANCH  25  28
ATOM     28  C   UNL     1      48.981   7.204  17.874  0.00  0.00    +0.000 A 
ATOM     29  C   UNL     1      49.403   7.674  19.110  0.00  0.00    +0.000 A 
ATOM     30  S   UNL     1      49.468   6.470  20.316  0.00  0.00    +0.000 S 
ATOM     31  C   UNL     1      48.989   5.264  19.215  0.00  0.00    +0.000 A 
ATOM     32  N   UNL     1      48.874   3.967  19.605  0.00  0.00    +0.000 NA
ATOM     33  C   UNL     1      48.537   3.154  18.660  0.00  0.00    +0.000 A 
ATOM     34  N   UNL     1      48.296   3.523  17.362  0.00  0.00    +0.000 N 
ATOM     35  C   UNL     1      48.366   4.827  16.930  0.00  0.00    +0.000 A 
ATOM     36  O   UNL     1      48.096   5.128  15.772  0.00  0.00    +0.000 OA
ATOM     37  C   UNL     1      48.760   5.779  17.950  0.00  0.00    +0.000 A 
ATOM     38  H   UNL     1      48.023   2.839  16.672  0.00  0.00    +0.000 HD
ENDBRANCH  25  28
ENDBRANCH  23  24
ENDBRANCH   4  23
TORSDOF 7
ENDMDL
MODEL 2
REMARK VINA RESULT:    -7.651      1.403      2.064
REMARK INTER + INTRA:         -12.012
REMARK INTER:                 -10.950
REMARK INTRA:                  -1.062
REMARK UNBOUND:                -1.230
REMARK  Name = 
REMARK  7 active torsions:
REMARK  status: ('A' for Active; 'I' for Inactive)
REMARK    1  A    between atoms: C_2  and  C_4
REMARK    2  A    between atoms: C_8  and  C_9
REMARK    3  A    between atoms: N_11  and  C_12
REMARK    4  A    between atoms: C_12  and  C_13
REMARK    5  A    between atoms: C_16  and  C_17
REMARK    6  A    between atoms: C_17  and  N_18
REMARK    7  A    between atoms: C_19  and  C_21
REMARK                            x       y       z     vdW  Elec       q    Type
REMARK                         _______ _______ _______ _____ _____    ______ ____
ROOT
ATOM      1  C   UNL     1      45.987   7.306  11.864  0.00  0.00    +0.000 A 
ATOM      2  C   UNL     1      47.020   6.409  12.170  0.00  0.00    +0.000 A 
ATOM      3  C   UNL     1      47.917   6.681  13.210  0.00  0.00    +0.000 A 
ATOM      4  C   UNL     1      47.789   7.846  13.977  0.00  0.00    +0.000 A 
ATOM      5  C   UNL     1      46.778   8.759  13.647  0.00  0.00    +0.000 A 
ATOM      6  C   UNL     1      45.881   8.487  12.610  0.00  0.00    +0.000 A 
ENDROOT
BRANCH   1   7
ATOM      7  C   UNL     1      44.954   6.966  10.814  0.00  0.00    +0.000 C 
BRANCH   7  10
ATOM      8  C   UNL     1      44.446   4.776   9.778  0.00  0.00    +0.000 C 
ATOM      9  O   UNL     1      43.258   4.810  10.076  0.00  0.00    +0.000 OA
ATOM     10  N   UNL     1      45.343   5.771  10.100  0.00  0.00    +0.000 N 
ATOM     11  H   UNL     1      46.335   5.604  10.001  0.00  0.00    +0.000 HD
BRANCH   8  16
ATOM     12  C   UNL     1      46.429   2.666   7.309  0.00  0.00    +0.000 A 
ATOM     13  C   UNL     1      46.128   1.373   7.754  0.00  0.00    +0.000 A 
ATOM     14  C   UNL     1      45.250   1.195   8.826  0.00  0.00    +0.000 A 
ATOM     15  C   UNL     1      44.690   2.304   9.470  0.00  0.00    +0.000 A 
ATOM     16  C   UNL     1      45.017   3.601   9.051  0.00  0.00    +0.000 A 
ATOM     17  C   UNL     1      45.870   3.775   7.955  0.00  0.00    +0.000 A 
BRANCH  12  19
ATOM     18  N   UNL     1      48.702   2.779   6.436  0.00  0.00    +0.000 N 
ATOM     19  C   UNL     1      47.366   2.921   6.188  0.00  0.00    +0.000 C 
ATOM     20  O   UNL     1      46.958   3.213   5.070  0.00  0.00    +0.000 OA
ATOM     21  H   UNL     1      49.315   2.854   5.634  0.00  0.00    +0.000 HD
ATOM     22  H   UNL     1      49.057   2.302   7.252  0.00  0.00    +0.000 HD
ENDBRANCH  12  19
ENDBRANCH   8  16
ENDBRANCH   7  10
ENDBRANCH   1   7
BRANCH   4  23
ATOM     23  C   UNL     1      48.721   8.122  15.130  0.00  0.00    +0.000 C 
BRANCH  23  24
ATOM     24  N   UNL     1      48.515   7.197  16.217  0.00  0.00    +0.000 N 
ATOM     25  C   UNL     1      49.475   6.276  16.553  0.00  0.00    +0.000 C 
ATOM     26  O   UNL     1      50.561   6.229  15.983  0.00  0.00    +0.000 OA
ATOM     27  H   UNL     1      47.561   7.068  16.535  0.00  0.00    +0.000 HD
BRANCH  25  28
ATOM     28  C   UNL     1      49.160   5.378  17.673  0.00  0.00    +0.000 A 
ATOM     29  C   UNL     1      48.892   4.038  17.424  0.00  0.00    +0.000 A 
ATOM     30  S   UNL     1      48.595   3.125  18.834  0.00  0.00    +0.000 S 
ATOM     31  C   UNL     1      48.759   4.500  19.824  0.00  0.00    +0.000 A 
ATOM     32  N   UNL     1      48.592   4.415  21.171  0.00  0.00    +0.000 NA
ATOM     33  C   UNL     1      48.711   5.539  21.795  0.00  0.00    +0.000 A 
ATOM     34  N   UNL     1      48.988   6.739  21.195  0.00  0.00    +0.000 N 
ATOM     35  C   UNL     1      49.199   6.867  19.841  0.00  0.00    +0.000 A 
ATOM     36  O   UNL     1      49.495   7.948  19.343  0.00  0.00    +0.000 OA
ATOM     37  C   UNL     1      49.059   5.634  19.091  0.00  0.00    +0.000 A 
ATOM     38  H   UNL     1      49.081   7.582  21.741  0.00  0.00    +0.000 HD
ENDBRANCH  25  28
ENDBRANCH  23  24
ENDBRANCH   4  23
TORSDOF 7
ENDMDL
MODEL 3
REMARK VINA RESULT:    -7.483      3.352      9.289
REMARK INTER + INTRA:         -11.775
REMARK INTER:                 -10.571
REMARK INTRA:                  -1.204
REMARK UNBOUND:                -1.230
REMARK  Name = 
REMARK  7 active torsions:
REMARK  status: ('A' for Active; 'I' for Inactive)
REMARK    1  A    between atoms: C_2  and  C_4
REMARK    2  A    between atoms: C_8  and  C_9
REMARK    3  A    between atoms: N_11  and  C_12
REMARK    4  A    between atoms: C_12  and  C_13
REMARK    5  A    between atoms: C_16  and  C_17
REMARK    6  A    between atoms: C_17  and  N_18
REMARK    7  A    between atoms: C_19  and  C_21
REMARK                            x       y       z     vdW  Elec       q    Type
REMARK                         _______ _______ _______ _____ _____    ______ ____
ROOT
ATOM      1  C   UNL     1      48.926   7.963  15.911  0.00  0.00    +0.000 A 
ATOM      2  C   UNL     1      48.634   9.145  15.215  0.00  0.00    +0.000 A 
ATOM      3  C   UNL     1      48.122   9.100  13.913  0.00  0.00    +0.000 A 
ATOM      4  C   UNL     1      47.875   7.872  13.285  0.00  0.00    +0.000 A 
ATOM      5  C   UNL     1      48.201   6.692  13.967  0.00  0.00    +0.000 A 
ATOM      6  C   UNL     1      48.709   6.737  15.269  0.00  0.00    +0.000 A 
ENDROOT
BRANCH   1   7
ATOM      7  C   UNL     1      49.376   8.006  17.352  0.00  0.00    +0.000 C 
BRANCH   7  10
ATOM      8  C   UNL     1      51.415   6.620  17.575  0.00  0.00    +0.000 C 
ATOM      9  O   UNL     1      52.164   7.493  17.152  0.00  0.00    +0.000 OA
ATOM     10  N   UNL     1      50.053   6.776  17.700  0.00  0.00    +0.000 N 
ATOM     11  H   UNL     1      49.468   5.969  17.870  0.00  0.00    +0.000 HD
BRANCH   8  16
ATOM     12  C   UNL     1      51.847   2.854  17.902  0.00  0.00    +0.000 A 
ATOM     13  C   UNL     1      53.025   2.780  18.655  0.00  0.00    +0.000 A 
ATOM     14  C   UNL     1      53.648   3.954  19.087  0.00  0.00    +0.000 A 
ATOM     15  C   UNL     1      53.110   5.201  18.750  0.00  0.00    +0.000 A 
ATOM     16  C   UNL     1      51.951   5.280  17.965  0.00  0.00    +0.000 A 
ATOM     17  C   UNL     1      51.312   4.101  17.564  0.00  0.00    +0.000 A 
BRANCH  12  19
ATOM     18  N   UNL     1      51.442   0.452  17.998  0.00  0.00    +0.000 N 
ATOM     19  C   UNL     1      51.150   1.644  17.400  0.00  0.00    +0.000 C 
ATOM     20  O   UNL     1      50.314   1.716  16.506  0.00  0.00    +0.000 OA
ATOM     21  H   UNL     1      50.879  -0.340  17.713  0.00  0.00    +0.000 HD
ATOM     22  H   UNL     1      51.919   0.390  18.886  0.00  0.00    +0.000 HD
ENDBRANCH  12  19
ENDBRANCH   8  16
ENDBRANCH   7  10
ENDBRANCH   1   7
BRANCH   4  23
ATOM     23  C   UNL     1      47.279   7.815  11.901  0.00  0.00    +0.000 C 
BRANCH  23  24
ATOM     24  N   UNL     1      46.652   6.542  11.642  0.00  0.00    +0.000 N 
ATOM     25  C   UNL     1      45.286   6.422  11.599  0.00  0.00    +0.000 C 
ATOM     26  O   UNL     1      44.543   7.391  11.729  0.00  0.00    +0.000 OA
ATOM     27  H   UNL     1      47.226   5.714  11.763  0.00  0.00    +0.000 HD
BRANCH  25  28
ATOM     28  C   UNL     1      44.752   5.079  11.333  0.00  0.00    +0.000 A 
ATOM     29  C   UNL     1      44.006   4.432  12.309  0.00  0.00    +0.000 A 
ATOM     30  S   UNL     1      43.420   2.905  11.823  0.00  0.00    +0.000 S 
ATOM     31  C   UNL     1      44.190   3.030  10.311  0.00  0.00    +0.000 A 
ATOM     32  N   UNL     1      44.111   2.023   9.401  0.00  0.00    +0.000 NA
ATOM     33  C   UNL     1      44.770   2.236   8.311  0.00  0.00    +0.000 A 
ATOM     34  N   UNL     1      45.494   3.369   8.046  0.00  0.00    +0.000 N 
ATOM     35  C   UNL     1      45.574   4.427   8.921  0.00  0.00    +0.000 A 
ATOM     36  O   UNL     1      46.190   5.447   8.631  0.00  0.00    +0.000 OA
ATOM     37  C   UNL     1      44.865   4.231  10.170  0.00  0.00    +0.000 A 
ATOM     38  H   UNL     1      45.979   3.480   7.167  0.00  0.00    +0.000 HD
ENDBRANCH  25  28
ENDBRANCH  23  24
ENDBRANCH   4  23
TORSDOF 7
ENDMDL
MODEL 4
REMARK VINA RESULT:    -7.447      2.301      2.486
REMARK INTER + INTRA:         -11.724
REMARK INTER:                 -10.569
REMARK INTRA:                  -1.155
REMARK UNBOUND:                -1.230
REMARK  Name = 
REMARK  7 active torsions:
REMARK  status: ('A' for Active; 'I' for Inactive)
REMARK    1  A    between atoms: C_2  and  C_4
REMARK    2  A    between atoms: C_8  and  C_9
REMARK    3  A    between atoms: N_11  and  C_12
REMARK    4  A    between atoms: C_12  and  C_13
REMARK    5  A    between atoms: C_16  and  C_17
REMARK    6  A    between atoms: C_17  and  N_18
REMARK    7  A    between atoms: C_19  and  C_21
REMARK                            x       y       z     vdW  Elec       q    Type
REMARK                         _______ _______ _______ _____ _____    ______ ____
ROOT
ATOM      1  C   UNL     1      46.255   7.450  11.941  0.00  0.00    +0.000 A 
ATOM      2  C   UNL     1      47.516   6.860  11.777  0.00  0.00    +0.000 A 
ATOM      3  C   UNL     1      48.554   7.132  12.676  0.00  0.00    +0.000 A 
ATOM      4  C   UNL     1      48.348   7.986  13.768  0.00  0.00    +0.000 A 
ATOM      5  C   UNL     1      47.099   8.603  13.910  0.00  0.00    +0.000 A 
ATOM      6  C   UNL     1      46.060   8.330  13.015  0.00  0.00    +0.000 A 
ENDROOT
BRANCH   1   7
ATOM      7  C   UNL     1      45.103   7.077  11.037  0.00  0.00    +0.000 C 
BRANCH   7  10
ATOM      8  C   UNL     1      44.427   4.932  10.002  0.00  0.00    +0.000 C 
ATOM      9  O   UNL     1      43.242   5.067  10.283  0.00  0.00    +0.000 OA
ATOM     10  N   UNL     1      45.400   5.850  10.333  0.00  0.00    +0.000 N 
ATOM     11  H   UNL     1      46.376   5.600  10.248  0.00  0.00    +0.000 HD
BRANCH   8  16
ATOM     12  C   UNL     1      46.336   2.641   7.638  0.00  0.00    +0.000 A 
ATOM     13  C   UNL     1      45.839   1.388   8.014  0.00  0.00    +0.000 A 
ATOM     14  C   UNL     1      44.855   1.299   9.003  0.00  0.00    +0.000 A 
ATOM     15  C   UNL     1      44.385   2.457   9.634  0.00  0.00    +0.000 A 
ATOM     16  C   UNL     1      44.907   3.710   9.286  0.00  0.00    +0.000 A 
ATOM     17  C   UNL     1      45.867   3.797   8.272  0.00  0.00    +0.000 A 
BRANCH  12  19
ATOM     18  N   UNL     1      47.114   3.598   5.536  0.00  0.00    +0.000 N 
ATOM     19  C   UNL     1      47.392   2.799   6.608  0.00  0.00    +0.000 C 
ATOM     20  O   UNL     1      48.487   2.262   6.731  0.00  0.00    +0.000 OA
ATOM     21  H   UNL     1      47.883   3.775   4.901  0.00  0.00    +0.000 HD
ATOM     22  H   UNL     1      46.340   4.246   5.525  0.00  0.00    +0.000 HD
ENDBRANCH  12  19
ENDBRANCH   8  16
ENDBRANCH   7  10
ENDBRANCH   1   7
BRANCH   4  23
ATOM     23  C   UNL     1      49.447   8.245  14.767  0.00  0.00    +0.000 C 
BRANCH  23  24
ATOM     24  N   UNL     1      49.951   7.021  15.338  0.00  0.00    +0.000 N 
ATOM     25  C   UNL     1      49.480   6.554  16.539  0.00  0.00    +0.000 C 
ATOM     26  O   UNL     1      48.582   7.124  17.153  0.00  0.00    +0.000 OA
ATOM     27  H   UNL     1      50.831   6.672  14.973  0.00  0.00    +0.000 HD
BRANCH  25  28
ATOM     28  C   UNL     1      50.066   5.299  17.032  0.00  0.00    +0.000 A 
ATOM     29  C   UNL     1      49.249   4.195  17.241  0.00  0.00    +0.000 A 
ATOM     30  S   UNL     1      50.092   2.809  17.766  0.00  0.00    +0.000 S 
ATOM     31  C   UNL     1      51.571   3.649  17.787  0.00  0.00    +0.000 A 
ATOM     32  N   UNL     1      52.718   3.035  18.182  0.00  0.00    +0.000 NA
ATOM     33  C   UNL     1      53.759   3.799  18.183  0.00  0.00    +0.000 A 
ATOM     34  N   UNL     1      53.758   5.120  17.818  0.00  0.00    +0.000 N 
ATOM     35  C   UNL     1      52.630   5.774  17.380  0.00  0.00    +0.000 A 
ATOM     36  O   UNL     1      52.674   6.944  17.014  0.00  0.00    +0.000 OA
ATOM     37  C   UNL     1      51.427   4.964  17.377  0.00  0.00    +0.000 A 
ATOM     38  H   UNL     1      54.610   5.661  17.829  0.00  0.00    +0.000 HD
ENDBRANCH  25  28
ENDBRANCH  23  24
ENDBRANCH   4  23
TORSDOF 7
ENDMDL
MODEL 5
REMARK VINA RESULT:    -7.197      4.642      9.422
REMARK INTER + INTRA:         -11.372
REMARK INTER:                 -10.249
REMARK INTRA:                  -1.123
REMARK UNBOUND:                -1.230
REMARK  Name = 
REMARK  7 active torsions:
REMARK  status: ('A' for Active; 'I' for Inactive)
REMARK    1  A    between atoms: C_2  and  C_4
REMARK    2  A    between atoms: C_8  and  C_9
REMARK    3  A    between atoms: N_11  and  C_12
REMARK    4  A    between atoms: C_12  and  C_13
REMARK    5  A    between atoms: C_16  and  C_17
REMARK    6  A    between atoms: C_17  and  N_18
REMARK    7  A    between atoms: C_19  and  C_21
REMARK                            x       y       z     vdW  Elec       q    Type
REMARK                         _______ _______ _______ _____ _____    ______ ____
ROOT
ATOM      1  C   UNL     1      48.975   5.009  17.414  0.00  0.00    +0.000 A 
ATOM      2  C   UNL     1      47.949   4.506  16.601  0.00  0.00    +0.000 A 
ATOM      3  C   UNL     1      47.621   5.135  15.394  0.00  0.00    +0.000 A 
ATOM      4  C   UNL     1      48.324   6.268  14.965  0.00  0.00    +0.000 A 
ATOM      5  C   UNL     1      49.325   6.791  15.795  0.00  0.00    +0.000 A 
ATOM      6  C   UNL     1      49.654   6.162  17.000  0.00  0.00    +0.000 A 
ENDROOT
BRANCH   1   7
ATOM      7  C   UNL     1      49.402   4.273  18.662  0.00  0.00    +0.000 C 
BRANCH   7  10
ATOM      8  C   UNL     1      51.025   2.638  17.758  0.00  0.00    +0.000 C 
ATOM      9  O   UNL     1      50.172   1.974  17.181  0.00  0.00    +0.000 OA
ATOM     10  N   UNL     1      50.744   3.761  18.504  0.00  0.00    +0.000 N 
ATOM     11  H   UNL     1      51.454   4.152  19.110  0.00  0.00    +0.000 HD
BRANCH   8  16
ATOM     12  C   UNL     1      54.189   0.557  17.381  0.00  0.00    +0.000 A 
ATOM     13  C   UNL     1      55.178   1.532  17.557  0.00  0.00    +0.000 A 
ATOM     14  C   UNL     1      54.811   2.850  17.839  0.00  0.00    +0.000 A 
ATOM     15  C   UNL     1      53.459   3.201  17.923  0.00  0.00    +0.000 A 
ATOM     16  C   UNL     1      52.465   2.236  17.711  0.00  0.00    +0.000 A 
ATOM     17  C   UNL     1      52.838   0.910  17.463  0.00  0.00    +0.000 A 
BRANCH  12  19
ATOM     18  N   UNL     1      54.451  -1.239  15.754  0.00  0.00    +0.000 N 
ATOM     19  C   UNL     1      54.515  -0.855  17.063  0.00  0.00    +0.000 C 
ATOM     20  O   UNL     1      54.864  -1.641  17.936  0.00  0.00    +0.000 OA
ATOM     21  H   UNL     1      54.778  -2.175  15.547  0.00  0.00    +0.000 HD
ATOM     22  H   UNL     1      54.418  -0.577  14.992  0.00  0.00    +0.000 HD
ENDBRANCH  12  19
ENDBRANCH   8  16
ENDBRANCH   7  10
ENDBRANCH   1   7
BRANCH   4  23
ATOM     23  C   UNL     1      48.009   6.922  13.643  0.00  0.00    +0.000 C 
BRANCH  23  24
ATOM     24  N   UNL     1      47.327   6.019  12.750  0.00  0.00    +0.000 N 
ATOM     25  C   UNL     1      46.359   6.473  11.890  0.00  0.00    +0.000 C 
ATOM     26  O   UNL     1      46.066   7.662  11.807  0.00  0.00    +0.000 OA
ATOM     27  H   UNL     1      47.386   5.029  12.964  0.00  0.00    +0.000 HD
BRANCH  25  28
ATOM     28  C   UNL     1      45.723   5.467  11.027  0.00  0.00    +0.000 A 
ATOM     29  C   UNL     1      45.826   5.583   9.647  0.00  0.00    +0.000 A 
ATOM     30  S   UNL     1      45.076   4.311   8.794  0.00  0.00    +0.000 S 
ATOM     31  C   UNL     1      44.537   3.589  10.237  0.00  0.00    +0.000 A 
ATOM     32  N   UNL     1      43.790   2.452  10.214  0.00  0.00    +0.000 NA
ATOM     33  C   UNL     1      43.420   2.033  11.378  0.00  0.00    +0.000 A 
ATOM     34  N   UNL     1      43.736   2.644  12.564  0.00  0.00    +0.000 N 
ATOM     35  C   UNL     1      44.517   3.774  12.638  0.00  0.00    +0.000 A 
ATOM     36  O   UNL     1      44.822   4.266  13.719  0.00  0.00    +0.000 OA
ATOM     37  C   UNL     1      44.944   4.297  11.355  0.00  0.00    +0.000 A 
ATOM     38  H   UNL     1      43.426   2.258  13.443  0.00  0.00    +0.000 HD
ENDBRANCH  25  28
ENDBRANCH  23  24
ENDBRANCH   4  23
TORSDOF 7
ENDMDL
MODEL 6
REMARK VINA RESULT:    -7.000      3.155      4.165
REMARK INTER + INTRA:         -11.095
REMARK INTER:                  -9.994
REMARK INTRA:                  -1.101
REMARK UNBOUND:                -1.230
REMARK  Name = 
REMARK  7 active torsions:
REMARK  status: ('A' for Active; 'I' for Inactive)
REMARK    1  A    between atoms: C_2  and  C_4
REMARK    2  A    between atoms: C_8  and  C_9
REMARK    3  A    between atoms: N_11  and  C_12
REMARK    4  A    between atoms: C_12  and  C_13
REMARK    5  A    between atoms: C_16  and  C_17
REMARK    6  A    between atoms: C_17  and  N_18
REMARK    7  A    between atoms: C_19  and  C_21
REMARK                            x       y       z     vdW  Elec       q    Type
REMARK                         _______ _______ _______ _____ _____    ______ ____
ROOT
ATOM      1  C   UNL     1      48.281   7.159  14.294  0.00  0.00    +0.000 A 
ATOM      2  C   UNL     1      48.803   8.266  14.976  0.00  0.00    +0.000 A 
ATOM      3  C   UNL     1      49.166   8.169  16.324  0.00  0.00    +0.000 A 
ATOM      4  C   UNL     1      49.031   6.957  17.015  0.00  0.00    +0.000 A 
ATOM      5  C   UNL     1      48.475   5.861  16.342  0.00  0.00    +0.000 A 
ATOM      6  C   UNL     1      48.115   5.956  14.994  0.00  0.00    +0.000 A 
ENDROOT
BRANCH   1   7
ATOM      7  C   UNL     1      47.989   7.230  12.813  0.00  0.00    +0.000 C 
BRANCH   7  10
ATOM      8  C   UNL     1      45.733   6.290  12.419  0.00  0.00    +0.000 C 
ATOM      9  O   UNL     1      45.149   7.316  12.746  0.00  0.00    +0.000 OA
ATOM     10  N   UNL     1      47.103   6.154  12.427  0.00  0.00    +0.000 N 
ATOM     11  H   UNL     1      47.518   5.236  12.334  0.00  0.00    +0.000 HD
BRANCH   8  16
ATOM     12  C   UNL     1      44.439   3.348  10.382  0.00  0.00    +0.000 A 
ATOM     13  C   UNL     1      43.561   2.751  11.294  0.00  0.00    +0.000 A 
ATOM     14  C   UNL     1      43.363   3.333  12.549  0.00  0.00    +0.000 A 
ATOM     15  C   UNL     1      44.057   4.495  12.903  0.00  0.00    +0.000 A 
ATOM     16  C   UNL     1      44.965   5.075  12.007  0.00  0.00    +0.000 A 
ATOM     17  C   UNL     1      45.135   4.508  10.739  0.00  0.00    +0.000 A 
BRANCH  12  19
ATOM     18  N   UNL     1      44.358   3.514   7.951  0.00  0.00    +0.000 N 
ATOM     19  C   UNL     1      44.705   2.769   9.042  0.00  0.00    +0.000 C 
ATOM     20  O   UNL     1      45.249   1.678   8.915  0.00  0.00    +0.000 OA
ATOM     21  H   UNL     1      44.643   3.148   7.051  0.00  0.00    +0.000 HD
ATOM     22  H   UNL     1      44.149   4.500   8.009  0.00  0.00    +0.000 HD
ENDBRANCH  12  19
ENDBRANCH   8  16
ENDBRANCH   7  10
ENDBRANCH   1   7
BRANCH   4  23
ATOM     23  C   UNL     1      49.464   6.832  18.453  0.00  0.00    +0.000 C 
BRANCH  23  24
ATOM     24  N   UNL     1      50.342   5.705  18.650  0.00  0.00    +0.000 N 
ATOM     25  C   UNL     1      51.676   5.784  18.336  0.00  0.00    +0.000 C 
ATOM     26  O   UNL     1      52.188   6.821  17.923  0.00  0.00    +0.000 OA
ATOM     27  H   UNL     1      49.906   4.796  18.763  0.00  0.00    +0.000 HD
BRANCH  25  28
ATOM     28  C   UNL     1      52.479   4.576  18.570  0.00  0.00    +0.000 A 
ATOM     29  C   UNL     1      53.684   4.676  19.254  0.00  0.00    +0.000 A 
ATOM     30  S   UNL     1      54.467   3.178  19.484  0.00  0.00    +0.000 S 
ATOM     31  C   UNL     1      53.251   2.349  18.629  0.00  0.00    +0.000 A 
ATOM     32  N   UNL     1      53.328   1.006  18.430  0.00  0.00    +0.000 NA
ATOM     33  C   UNL     1      52.358   0.514  17.736  0.00  0.00    +0.000 A 
ATOM     34  N   UNL     1      51.312   1.242  17.230  0.00  0.00    +0.000 N 
ATOM     35  C   UNL     1      51.175   2.595  17.435  0.00  0.00    +0.000 A 
ATOM     36  O   UNL     1      50.201   3.207  17.009  0.00  0.00    +0.000 OA
ATOM     37  C   UNL     1      52.251   3.201  18.194  0.00  0.00    +0.000 A 
ATOM     38  H   UNL     1      50.576   0.794  16.704  0.00  0.00    +0.000 HD
ENDBRANCH  25  28
ENDBRANCH  23  24
ENDBRANCH   4  23
TORSDOF 7
ENDMDL
MODEL 7
REMARK VINA RESULT:    -6.740      5.313      7.598
REMARK INTER + INTRA:         -10.727
REMARK INTER:                  -9.758
REMARK INTRA:                  -0.969
REMARK UNBOUND:                -1.230
REMARK  Name = 
REMARK  7 active torsions:
REMARK  status: ('A' for Active; 'I' for Inactive)
REMARK    1  A    between atoms: C_2  and  C_4
REMARK    2  A    between atoms: C_8  and  C_9
REMARK    3  A    between atoms: N_11  and  C_12
REMARK    4  A    between atoms: C_12  and  C_13
REMARK    5  A    between atoms: C_16  and  C_17
REMARK    6  A    between atoms: C_17  and  N_18
REMARK    7  A    between atoms: C_19  and  C_21
REMARK                            x       y       z     vdW  Elec       q    Type
REMARK                         _______ _______ _______ _____ _____    ______ ____
ROOT
ATOM      1  C   UNL     1      47.803   8.625  12.631  0.00  0.00    +0.000 A 
ATOM      2  C   UNL     1      48.564   7.677  11.933  0.00  0.00    +0.000 A 
ATOM      3  C   UNL     1      49.837   8.000  11.447  0.00  0.00    +0.000 A 
ATOM      4  C   UNL     1      50.384   9.271  11.666  0.00  0.00    +0.000 A 
ATOM      5  C   UNL     1      49.608  10.229  12.332  0.00  0.00    +0.000 A 
ATOM      6  C   UNL     1      48.338   9.907  12.820  0.00  0.00    +0.000 A 
ENDROOT
BRANCH   1   7
ATOM      7  C   UNL     1      46.476   8.249  13.248  0.00  0.00    +0.000 C 
BRANCH   7  10
ATOM      8  C   UNL     1      45.012   6.888  11.789  0.00  0.00    +0.000 C 
ATOM      9  O   UNL     1      44.408   7.855  11.340  0.00  0.00    +0.000 OA
ATOM     10  N   UNL     1      46.022   6.983  12.720  0.00  0.00    +0.000 N 
ATOM     11  H   UNL     1      46.349   6.150  13.193  0.00  0.00    +0.000 HD
BRANCH   8  16
ATOM     12  C   UNL     1      44.819   3.660   9.783  0.00  0.00    +0.000 A 
ATOM     13  C   UNL     1      44.026   2.867  10.620  0.00  0.00    +0.000 A 
ATOM     14  C   UNL     1      43.524   3.400  11.810  0.00  0.00    +0.000 A 
ATOM     15  C   UNL     1      43.831   4.715  12.177  0.00  0.00    +0.000 A 
ATOM     16  C   UNL     1      44.655   5.501  11.360  0.00  0.00    +0.000 A 
ATOM     17  C   UNL     1      45.128   4.974  10.152  0.00  0.00    +0.000 A 
BRANCH  12  19
ATOM     18  N   UNL     1      45.730   1.824   8.464  0.00  0.00    +0.000 N 
ATOM     19  C   UNL     1      45.394   3.146   8.515  0.00  0.00    +0.000 C 
ATOM     20  O   UNL     1      45.531   3.872   7.537  0.00  0.00    +0.000 OA
ATOM     21  H   UNL     1      46.022   1.472   7.561  0.00  0.00    +0.000 HD
ATOM     22  H   UNL     1      45.405   1.152   9.144  0.00  0.00    +0.000 HD
ENDBRANCH  12  19
ENDBRANCH   8  16
ENDBRANCH   7  10
ENDBRANCH   1   7
BRANCH   4  23
ATOM     23  C   UNL     1      51.773   9.610  11.188  0.00  0.00    +0.000 C 
BRANCH  23  24
ATOM     24  N   UNL     1      52.045   9.044   9.891  0.00  0.00    +0.000 N 
ATOM     25  C   UNL     1      53.307   8.623   9.553  0.00  0.00    +0.000 C 
ATOM     26  O   UNL     1      54.242   8.664  10.348  0.00  0.00    +0.000 OA
ATOM     27  H   UNL     1      51.360   9.214   9.162  0.00  0.00    +0.000 HD
BRANCH  25  28
ATOM     28  C   UNL     1      53.475   8.067   8.203  0.00  0.00    +0.000 A 
ATOM     29  C   UNL     1      53.464   8.916   7.104  0.00  0.00    +0.000 A 
ATOM     30  S   UNL     1      53.721   8.117   5.619  0.00  0.00    +0.000 S 
ATOM     31  C   UNL     1      53.800   6.600   6.386  0.00  0.00    +0.000 A 
ATOM     32  N   UNL     1      53.979   5.461   5.665  0.00  0.00    +0.000 NA
ATOM     33  C   UNL     1      53.985   4.379   6.370  0.00  0.00    +0.000 A 
ATOM     34  N   UNL     1      53.836   4.334   7.731  0.00  0.00    +0.000 N 
ATOM     35  C   UNL     1      53.688   5.462   8.505  0.00  0.00    +0.000 A 
ATOM     36  O   UNL     1      53.606   5.389   9.727  0.00  0.00    +0.000 OA
ATOM     37  C   UNL     1      53.656   6.705   7.759  0.00  0.00    +0.000 A 
ATOM     38  H   UNL     1      53.862   3.455   8.226  0.00  0.00    +0.000 HD
ENDBRANCH  25  28
ENDBRANCH  23  24
ENDBRANCH   4  23
TORSDOF 7
ENDMDL
MODEL 8
REMARK VINA RESULT:    -6.477      3.248     10.015
REMARK INTER + INTRA:         -10.357
REMARK INTER:                  -9.381
REMARK INTRA:                  -0.976
REMARK UNBOUND:                -1.230
REMARK  Name = 
REMARK  7 active torsions:
REMARK  status: ('A' for Active; 'I' for Inactive)
REMARK    1  A    between atoms: C_2  and  C_4
REMARK    2  A    between atoms: C_8  and  C_9
REMARK    3  A    between atoms: N_11  and  C_12
REMARK    4  A    between atoms: C_12  and  C_13
REMARK    5  A    between atoms: C_16  and  C_17
REMARK    6  A    between atoms: C_17  and  N_18
REMARK    7  A    between atoms: C_19  and  C_21
REMARK                            x       y       z     vdW  Elec       q    Type
REMARK                         _______ _______ _______ _____ _____    ______ ____
ROOT
ATOM      1  C   UNL     1      50.866   7.641  14.782  0.00  0.00    +0.000 A 
ATOM      2  C   UNL     1      49.644   7.040  15.115  0.00  0.00    +0.000 A 
ATOM      3  C   UNL     1      48.531   7.172  14.277  0.00  0.00    +0.000 A 
ATOM      4  C   UNL     1      48.620   7.893  13.079  0.00  0.00    +0.000 A 
ATOM      5  C   UNL     1      49.831   8.524  12.765  0.00  0.00    +0.000 A 
ATOM      6  C   UNL     1      50.945   8.390  13.600  0.00  0.00    +0.000 A 
ENDROOT
BRANCH   1   7
ATOM      7  C   UNL     1      52.097   7.413  15.628  0.00  0.00    +0.000 C 
BRANCH   7  10
ATOM      8  C   UNL     1      52.393   6.105  17.709  0.00  0.00    +0.000 C 
ATOM      9  O   UNL     1      53.358   5.479  17.285  0.00  0.00    +0.000 OA
ATOM     10  N   UNL     1      51.716   7.054  16.976  0.00  0.00    +0.000 N 
ATOM     11  H   UNL     1      50.821   7.396  17.301  0.00  0.00    +0.000 HD
BRANCH   8  16
ATOM     12  C   UNL     1      50.113   5.021  20.556  0.00  0.00    +0.000 A 
ATOM     13  C   UNL     1      50.915   5.302  21.669  0.00  0.00    +0.000 A 
ATOM     14  C   UNL     1      52.174   5.881  21.488  0.00  0.00    +0.000 A 
ATOM     15  C   UNL     1      52.643   6.159  20.199  0.00  0.00    +0.000 A 
ATOM     16  C   UNL     1      51.858   5.845  19.081  0.00  0.00    +0.000 A 
ATOM     17  C   UNL     1      50.584   5.296  19.268  0.00  0.00    +0.000 A 
BRANCH  12  19
ATOM     18  N   UNL     1      48.418   3.473  19.736  0.00  0.00    +0.000 N 
ATOM     19  C   UNL     1      48.776   4.391  20.682  0.00  0.00    +0.000 C 
ATOM     20  O   UNL     1      48.032   4.656  21.619  0.00  0.00    +0.000 OA
ATOM     21  H   UNL     1      47.549   2.980  19.899  0.00  0.00    +0.000 HD
ATOM     22  H   UNL     1      49.086   3.048  19.109  0.00  0.00    +0.000 HD
ENDBRANCH  12  19
ENDBRANCH   8  16
ENDBRANCH   7  10
ENDBRANCH   1   7
BRANCH   4  23
ATOM     23  C   UNL     1      47.439   7.999  12.148  0.00  0.00    +0.000 C 
BRANCH  23  24
ATOM     24  N   UNL     1      46.787   6.726  11.965  0.00  0.00    +0.000 N 
ATOM     25  C   UNL     1      45.433   6.648  11.761  0.00  0.00    +0.000 C 
ATOM     26  O   UNL     1      44.727   7.650  11.677  0.00  0.00    +0.000 OA
ATOM     27  H   UNL     1      47.300   5.901  12.257  0.00  0.00    +0.000 HD
BRANCH  25  28
ATOM     28  C   UNL     1      44.869   5.302  11.592  0.00  0.00    +0.000 A 
ATOM     29  C   UNL     1      44.181   4.708  12.642  0.00  0.00    +0.000 A 
ATOM     30  S   UNL     1      43.550   3.169  12.266  0.00  0.00    +0.000 S 
ATOM     31  C   UNL     1      44.223   3.215  10.704  0.00  0.00    +0.000 A 
ATOM     32  N   UNL     1      44.077   2.169   9.848  0.00  0.00    +0.000 NA
ATOM     33  C   UNL     1      44.667   2.323   8.710  0.00  0.00    +0.000 A 
ATOM     34  N   UNL     1      45.383   3.434   8.347  0.00  0.00    +0.000 N 
ATOM     35  C   UNL     1      45.529   4.530   9.165  0.00  0.00    +0.000 A 
ATOM     36  O   UNL     1      46.135   5.528   8.790  0.00  0.00    +0.000 OA
ATOM     37  C   UNL     1      44.899   4.400  10.465  0.00  0.00    +0.000 A 
ATOM     38  H   UNL     1      45.811   3.499   7.436  0.00  0.00    +0.000 HD
ENDBRANCH  25  28
ENDBRANCH  23  24
ENDBRANCH   4  23
TORSDOF 7
ENDMDL
MODEL 9
REMARK VINA RESULT:    -6.374      4.011      6.706
REMARK INTER + INTRA:         -10.212
REMARK INTER:                  -9.018
REMARK INTRA:                  -1.194
REMARK UNBOUND:                -1.230
REMARK  Name = 
REMARK  7 active torsions:
REMARK  status: ('A' for Active; 'I' for Inactive)
REMARK    1  A    between atoms: C_2  and  C_4
REMARK    2  A    between atoms: C_8  and  C_9
REMARK    3  A    between atoms: N_11  and  C_12
REMARK    4  A    between atoms: C_12  and  C_13
REMARK    5  A    between atoms: C_16  and  C_17
REMARK    6  A    between atoms: C_17  and  N_18
REMARK    7  A    between atoms: C_19  and  C_21
REMARK                            x       y       z     vdW  Elec       q    Type
REMARK                         _______ _______ _______ _____ _____    ______ ____
ROOT
ATOM      1  C   UNL     1      48.727   4.049  17.204  0.00  0.00    +0.000 A 
ATOM      2  C   UNL     1      49.697   3.053  17.386  0.00  0.00    +0.000 A 
ATOM      3  C   UNL     1      51.028   3.393  17.656  0.00  0.00    +0.000 A 
ATOM      4  C   UNL     1      51.414   4.735  17.768  0.00  0.00    +0.000 A 
ATOM      5  C   UNL     1      50.452   5.730  17.550  0.00  0.00    +0.000 A 
ATOM      6  C   UNL     1      49.121   5.391  17.283  0.00  0.00    +0.000 A 
ENDROOT
BRANCH   1   7
ATOM      7  C   UNL     1      47.272   3.686  17.019  0.00  0.00    +0.000 C 
BRANCH   7  10
ATOM      8  C   UNL     1      46.922   4.033  14.593  0.00  0.00    +0.000 C 
ATOM      9  O   UNL     1      47.597   3.065  14.265  0.00  0.00    +0.000 OA
ATOM     10  N   UNL     1      46.716   4.414  15.900  0.00  0.00    +0.000 N 
ATOM     11  H   UNL     1      46.315   5.320  16.103  0.00  0.00    +0.000 HD
BRANCH   8  16
ATOM     12  C   UNL     1      44.402   5.481  12.136  0.00  0.00    +0.000 A 
ATOM     13  C   UNL     1      45.094   6.604  11.667  0.00  0.00    +0.000 A 
ATOM     14  C   UNL     1      46.391   6.859  12.121  0.00  0.00    +0.000 A 
ATOM     15  C   UNL     1      46.989   6.009  13.058  0.00  0.00    +0.000 A 
ATOM     16  C   UNL     1      46.286   4.905  13.558  0.00  0.00    +0.000 A 
ATOM     17  C   UNL     1      45.001   4.634  13.075  0.00  0.00    +0.000 A 
BRANCH  12  19
ATOM     18  N   UNL     1      42.092   6.167  11.772  0.00  0.00    +0.000 N 
ATOM     19  C   UNL     1      43.018   5.166  11.705  0.00  0.00    +0.000 C 
ATOM     20  O   UNL     1      42.723   4.059  11.271  0.00  0.00    +0.000 OA
ATOM     21  H   UNL     1      41.183   5.961  11.376  0.00  0.00    +0.000 HD
ATOM     22  H   UNL     1      42.346   7.139  11.878  0.00  0.00    +0.000 HD
ENDBRANCH  12  19
ENDBRANCH   8  16
ENDBRANCH   7  10
ENDBRANCH   1   7
BRANCH   4  23
ATOM     23  C   UNL     1      52.835   5.108  18.106  0.00  0.00    +0.000 C 
BRANCH  23  24
ATOM     24  N   UNL     1      53.116   6.486  17.786  0.00  0.00    +0.000 N 
ATOM     25  C   UNL     1      53.659   6.834  16.575  0.00  0.00    +0.000 C 
ATOM     26  O   UNL     1      53.882   6.004  15.698  0.00  0.00    +0.000 OA
ATOM     27  H   UNL     1      53.158   7.139  18.562  0.00  0.00    +0.000 HD
BRANCH  25  28
ATOM     28  C   UNL     1      53.911   8.265  16.354  0.00  0.00    +0.000 A 
ATOM     29  C   UNL     1      55.057   8.849  16.879  0.00  0.00    +0.000 A 
ATOM     30  S   UNL     1      55.223  10.501  16.490  0.00  0.00    +0.000 S 
ATOM     31  C   UNL     1      53.741  10.510  15.655  0.00  0.00    +0.000 A 
ATOM     32  N   UNL     1      53.264  11.651  15.088  0.00  0.00    +0.000 NA
ATOM     33  C   UNL     1      52.114  11.522  14.517  0.00  0.00    +0.000 A 
ATOM     34  N   UNL     1      51.400  10.354  14.454  0.00  0.00    +0.000 N 
ATOM     35  C   UNL     1      51.857   9.169  14.982  0.00  0.00    +0.000 A 
ATOM     36  O   UNL     1      51.215   8.130  14.865  0.00  0.00    +0.000 OA
ATOM     37  C   UNL     1      53.139   9.263  15.653  0.00  0.00    +0.000 A 
ATOM     38  H   UNL     1      50.509  10.316  13.981  0.00  0.00    +0.000 HD
ENDBRANCH  25  28
ENDBRANCH  23  24
ENDBRANCH   4  23
TORSDOF 7
ENDMDL
