MODEL 1
REMARK VINA RESULT:    -7.824      0.000      0.000
REMARK INTER + INTRA:         -12.210
REMARK INTER:                 -11.026
REMARK INTRA:                  -1.184
REMARK UNBOUND:                -1.184
REMARK  Name = 
REMARK  8 active torsions:
REMARK  status: ('A' for Active; 'I' for Inactive)
REMARK    1  A    between atoms: C_1  and  O_2
REMARK    2  A    between atoms: O_2  and  C_3
REMARK    3  A    between atoms: C_7  and  C_8
REMARK    4  A    between atoms: C_8  and  N_9
REMARK    5  A    between atoms: N_9  and  C_10
REMARK    6  A    between atoms: C_13  and  C_14
REMARK    7  A    between atoms: C_14  and  N_15
REMARK    8  A    between atoms: C_16  and  C_18
REMARK                            x       y       z     vdW  Elec       q    Type
REMARK                         _______ _______ _______ _____ _____    ______ ____
ROOT
ATOM      1  C   UNL     1      45.034   6.638  11.157  0.00  0.00    +0.000 A 
ATOM      2  C   UNL     1      46.331   6.136  11.343  0.00  0.00    +0.000 A 
ATOM      3  C   UNL     1      47.220   6.731  12.254  0.00  0.00    +0.000 A 
ATOM      4  C   UNL     1      46.837   7.860  12.987  0.00  0.00    +0.000 A 
ATOM      5  C   UNL     1      45.582   8.416  12.739  0.00  0.00    +0.000 A 
ATOM      6  C   UNL     1      44.702   7.818  11.833  0.00  0.00    +0.000 A 
ENDROOT
BRANCH   1   7
ATOM      7  N   UNL     1      44.183   6.045  10.205  0.00  0.00    +0.000 N 
ATOM      8  H   UNL     1      44.548   6.170   9.261  0.00  0.00    +0.000 HD
BRANCH   7   9
ATOM      9  C   UNL     1      43.842   4.635  10.433  0.00  0.00    +0.000 C 
BRANCH   9  14
ATOM     10  C   UNL     1      45.887   3.533   7.582  0.00  0.00    +0.000 A 
ATOM     11  C   UNL     1      46.022   2.164   7.737  0.00  0.00    +0.000 A 
ATOM     12  C   UNL     1      45.387   1.562   8.819  0.00  0.00    +0.000 A 
ATOM     13  C   UNL     1      44.651   2.347   9.704  0.00  0.00    +0.000 A 
ATOM     14  C   UNL     1      44.566   3.718   9.472  0.00  0.00    +0.000 A 
ATOM     15  N   UNL     1      45.171   4.311   8.417  0.00  0.00    +0.000 NA
BRANCH  10  17
ATOM     16  C   UNL     1      46.940   3.167   5.540  0.00  0.00    +0.000 C 
ATOM     17  O   UNL     1      46.548   4.122   6.524  0.00  0.00    +0.000 OA
ENDBRANCH  10  17
ENDBRANCH   9  14
ENDBRANCH   7   9
ENDBRANCH   1   7
BRANCH   4  18
ATOM     18  C   UNL     1      47.742   8.503  14.004  0.00  0.00    +0.000 C 
BRANCH  18  19
ATOM     19  N   UNL     1      47.989   7.639  15.130  0.00  0.00    +0.000 N 
ATOM     20  C   UNL     1      49.202   7.011  15.280  0.00  0.00    +0.000 C 
ATOM     21  O   UNL     1      50.131   7.190  14.502  0.00  0.00    +0.000 OA
ATOM     22  H   UNL     1      47.176   7.279  15.624  0.00  0.00    +0.000 HD
BRANCH  20  23
ATOM     23  C   UNL     1      49.349   6.160  16.471  0.00  0.00    +0.000 A 
ATOM     24  C   UNL     1      50.342   6.443  17.399  0.00  0.00    +0.000 A 
ATOM     25  S   UNL     1      50.347   5.384  18.736  0.00  0.00    +0.000 S 
ATOM     26  C   UNL     1      49.057   4.478  18.095  0.00  0.00    +0.000 A 
ATOM     27  N   UNL     1      48.579   3.385  18.747  0.00  0.00    +0.000 NA
ATOM     28  C   UNL     1      47.615   2.780  18.135  0.00  0.00    +0.000 A 
ATOM     29  N   UNL     1      47.082   3.173  16.936  0.00  0.00    +0.000 N 
ATOM     30  C   UNL     1      47.515   4.287  16.253  0.00  0.00    +0.000 A 
ATOM     31  O   UNL     1      46.987   4.637  15.204  0.00  0.00    +0.000 OA
ATOM     32  C   UNL     1      48.609   4.995  16.892  0.00  0.00    +0.000 A 
ATOM     33  H   UNL     1      46.318   2.664  16.517  0.00  0.00    +0.000 HD
ENDBRANCH  20  23
ENDBRANCH  18  19
ENDBRANCH   4  18
TORSDOF 7
ENDMDL
MODEL 2
REMARK VINA RESULT:    -7.792      1.882      2.172
REMARK INTER + INTRA:         -12.164
REMARK INTER:                 -11.198
REMARK INTRA:                  -0.966
REMARK UNBOUND:                -1.184
REMARK  Name = 
REMARK  8 active torsions:
REMARK  status: ('A' for Active; 'I' for Inactive)
REMARK    1  A    between atoms: C_1  and  O_2
REMARK    2  A    between atoms: O_2  and  C_3
REMARK    3  A    between atoms: C_7  and  C_8
REMARK    4  A    between atoms: C_8  and  N_9
REMARK    5  A    between atoms: N_9  and  C_10
REMARK    6  A    between atoms: C_13  and  C_14
REMARK    7  A    between atoms: C_14  and  N_15
REMARK    8  A    between atoms: C_16  and  C_18
REMARK                            x       y       z     vdW  Elec       q    Type
REMARK                         _______ _______ _______ _____ _____    ______ ____
ROOT
ATOM      1  C   UNL     1      44.861   4.984  12.032  0.00  0.00    +0.000 A 
ATOM      2  C   UNL     1      45.588   4.208  12.947  0.00  0.00    +0.000 A 
ATOM      3  C   UNL     1      46.730   4.717  13.589  0.00  0.00    +0.000 A 
ATOM      4  C   UNL     1      47.184   6.011  13.312  0.00  0.00    +0.000 A 
ATOM      5  C   UNL     1      46.516   6.753  12.338  0.00  0.00    +0.000 A 
ATOM      6  C   UNL     1      45.380   6.242  11.705  0.00  0.00    +0.000 A 
ENDROOT
BRANCH   1   7
ATOM      7  N   UNL     1      43.746   4.430  11.375  0.00  0.00    +0.000 N 
ATOM      8  H   UNL     1      42.878   4.701  11.837  0.00  0.00    +0.000 HD
BRANCH   7   9
ATOM      9  C   UNL     1      43.652   4.684   9.933  0.00  0.00    +0.000 C 
BRANCH   9  14
ATOM     10  C   UNL     1      45.997   3.444   7.385  0.00  0.00    +0.000 A 
ATOM     11  C   UNL     1      46.201   2.111   7.694  0.00  0.00    +0.000 A 
ATOM     12  C   UNL     1      45.513   1.578   8.781  0.00  0.00    +0.000 A 
ATOM     13  C   UNL     1      44.659   2.395   9.517  0.00  0.00    +0.000 A 
ATOM     14  C   UNL     1      44.510   3.727   9.135  0.00  0.00    +0.000 A 
ATOM     15  N   UNL     1      45.166   4.250   8.074  0.00  0.00    +0.000 NA
BRANCH  10  17
ATOM     16  C   UNL     1      47.117   2.958   5.404  0.00  0.00    +0.000 C 
ATOM     17  O   UNL     1      46.708   3.969   6.325  0.00  0.00    +0.000 OA
ENDBRANCH  10  17
ENDBRANCH   9  14
ENDBRANCH   7   9
ENDBRANCH   1   7
BRANCH   4  18
ATOM     18  C   UNL     1      48.377   6.611  14.009  0.00  0.00    +0.000 C 
BRANCH  18  19
ATOM     19  N   UNL     1      48.136   6.815  15.414  0.00  0.00    +0.000 N 
ATOM     20  C   UNL     1      49.124   6.575  16.338  0.00  0.00    +0.000 C 
ATOM     21  O   UNL     1      50.253   6.228  16.013  0.00  0.00    +0.000 OA
ATOM     22  H   UNL     1      47.166   6.844  15.718  0.00  0.00    +0.000 HD
BRANCH  20  23
ATOM     23  C   UNL     1      48.772   6.825  17.744  0.00  0.00    +0.000 A 
ATOM     24  C   UNL     1      48.508   8.122  18.166  0.00  0.00    +0.000 A 
ATOM     25  S   UNL     1      48.077   8.230  19.812  0.00  0.00    +0.000 S 
ATOM     26  C   UNL     1      48.281   6.554  20.033  0.00  0.00    +0.000 A 
ATOM     27  N   UNL     1      48.094   5.982  21.252  0.00  0.00    +0.000 NA
ATOM     28  C   UNL     1      48.306   4.707  21.279  0.00  0.00    +0.000 A 
ATOM     29  N   UNL     1      48.679   3.954  20.198  0.00  0.00    +0.000 N 
ATOM     30  C   UNL     1      48.855   4.485  18.940  0.00  0.00    +0.000 A 
ATOM     31  O   UNL     1      49.146   3.776  17.984  0.00  0.00    +0.000 OA
ATOM     32  C   UNL     1      48.644   5.918  18.858  0.00  0.00    +0.000 A 
ATOM     33  H   UNL     1      48.815   2.958  20.283  0.00  0.00    +0.000 HD
ENDBRANCH  20  23
ENDBRANCH  18  19
ENDBRANCH   4  18
TORSDOF 7
ENDMDL
MODEL 3
REMARK VINA RESULT:    -7.572      3.774      5.982
REMARK INTER + INTRA:         -11.855
REMARK INTER:                 -10.575
REMARK INTRA:                  -1.281
REMARK UNBOUND:                -1.184
REMARK  Name = 
REMARK  8 active torsions:
REMARK  status: ('A' for Active; 'I' for Inactive)
REMARK    1  A    between atoms: C_1  and  O_2
REMARK    2  A    between atoms: O_2  and  C_3
REMARK    3  A    between atoms: C_7  and  C_8
REMARK    4  A    between atoms: C_8  and  N_9
REMARK    5  A    between atoms: N_9  and  C_10
REMARK    6  A    between atoms: C_13  and  C_14
REMARK    7  A    between atoms: C_14  and  N_15
REMARK    8  A    between atoms: C_16  and  C_18
REMARK                            x       y       z     vdW  Elec       q    Type
REMARK                         _______ _______ _______ _____ _____    ______ ____
ROOT
ATOM      1  C   UNL     1      44.932   3.742  12.749  0.00  0.00    +0.000 A 
ATOM      2  C   UNL     1      44.463   5.056  12.896  0.00  0.00    +0.000 A 
ATOM      3  C   UNL     1      45.334   6.109  13.226  0.00  0.00    +0.000 A 
ATOM      4  C   UNL     1      46.696   5.865  13.439  0.00  0.00    +0.000 A 
ATOM      5  C   UNL     1      47.149   4.547  13.382  0.00  0.00    +0.000 A 
ATOM      6  C   UNL     1      46.278   3.505  13.052  0.00  0.00    +0.000 A 
ENDROOT
BRANCH   1   7
ATOM      7  N   UNL     1      44.027   2.704  12.460  0.00  0.00    +0.000 N 
ATOM      8  H   UNL     1      43.360   2.578  13.222  0.00  0.00    +0.000 HD
BRANCH   7   9
ATOM      9  C   UNL     1      43.317   2.802  11.179  0.00  0.00    +0.000 C 
BRANCH   9  14
ATOM     10  C   UNL     1      45.758   1.971   8.557  0.00  0.00    +0.000 A 
ATOM     11  C   UNL     1      45.933   3.140   7.837  0.00  0.00    +0.000 A 
ATOM     12  C   UNL     1      45.235   4.272   8.246  0.00  0.00    +0.000 A 
ATOM     13  C   UNL     1      44.388   4.191   9.349  0.00  0.00    +0.000 A 
ATOM     14  C   UNL     1      44.272   2.975  10.018  0.00  0.00    +0.000 A 
ATOM     15  N   UNL     1      44.955   1.872   9.634  0.00  0.00    +0.000 NA
BRANCH  10  17
ATOM     16  C   UNL     1      47.342   1.146   7.064  0.00  0.00    +0.000 C 
ATOM     17  O   UNL     1      46.431   0.847   8.122  0.00  0.00    +0.000 OA
ENDBRANCH  10  17
ENDBRANCH   9  14
ENDBRANCH   7   9
ENDBRANCH   1   7
BRANCH   4  18
ATOM     18  C   UNL     1      47.671   6.969  13.752  0.00  0.00    +0.000 C 
BRANCH  18  19
ATOM     19  N   UNL     1      47.133   8.269  13.443  0.00  0.00    +0.000 N 
ATOM     20  C   UNL     1      47.633   9.005  12.397  0.00  0.00    +0.000 C 
ATOM     21  O   UNL     1      48.512   8.578  11.658  0.00  0.00    +0.000 OA
ATOM     22  H   UNL     1      46.608   8.738  14.177  0.00  0.00    +0.000 HD
BRANCH  20  23
ATOM     23  C   UNL     1      47.004  10.315  12.166  0.00  0.00    +0.000 A 
ATOM     24  C   UNL     1      47.718  11.476  12.432  0.00  0.00    +0.000 A 
ATOM     25  S   UNL     1      46.858  12.904  12.071  0.00  0.00    +0.000 S 
ATOM     26  C   UNL     1      45.482  12.022  11.598  0.00  0.00    +0.000 A 
ATOM     27  N   UNL     1      44.349  12.656  11.195  0.00  0.00    +0.000 NA
ATOM     28  C   UNL     1      43.376  11.864  10.887  0.00  0.00    +0.000 A 
ATOM     29  N   UNL     1      43.436  10.497  10.938  0.00  0.00    +0.000 N 
ATOM     30  C   UNL     1      44.568   9.810  11.314  0.00  0.00    +0.000 A 
ATOM     31  O   UNL     1      44.603   8.585  11.307  0.00  0.00    +0.000 OA
ATOM     32  C   UNL     1      45.687  10.655  11.685  0.00  0.00    +0.000 A 
ATOM     33  H   UNL     1      42.643   9.933  10.670  0.00  0.00    +0.000 HD
ENDBRANCH  20  23
ENDBRANCH  18  19
ENDBRANCH   4  18
TORSDOF 7
ENDMDL
MODEL 4
REMARK VINA RESULT:    -7.529      2.357      2.805
REMARK INTER + INTRA:         -11.794
REMARK INTER:                 -10.673
REMARK INTRA:                  -1.120
REMARK UNBOUND:                -1.184
REMARK  Name = 
REMARK  8 active torsions:
REMARK  status: ('A' for Active; 'I' for Inactive)
REMARK    1  A    between atoms: C_1  and  O_2
REMARK    2  A    between atoms: O_2  and  C_3
REMARK    3  A    between atoms: C_7  and  C_8
REMARK    4  A    between atoms: C_8  and  N_9
REMARK    5  A    between atoms: N_9  and  C_10
REMARK    6  A    between atoms: C_13  and  C_14
REMARK    7  A    between atoms: C_14  and  N_15
REMARK    8  A    between atoms: C_16  and  C_18
REMARK                            x       y       z     vdW  Elec       q    Type
REMARK                         _______ _______ _______ _____ _____    ______ ____
ROOT
ATOM      1  C   UNL     1      44.820   5.146  12.346  0.00  0.00    +0.000 A 
ATOM      2  C   UNL     1      45.496   4.299  13.237  0.00  0.00    +0.000 A 
ATOM      3  C   UNL     1      46.633   4.736  13.938  0.00  0.00    +0.000 A 
ATOM      4  C   UNL     1      47.132   6.029  13.747  0.00  0.00    +0.000 A 
ATOM      5  C   UNL     1      46.516   6.844  12.797  0.00  0.00    +0.000 A 
ATOM      6  C   UNL     1      45.385   6.403  12.104  0.00  0.00    +0.000 A 
ENDROOT
BRANCH   1   7
ATOM      7  N   UNL     1      43.710   4.662  11.627  0.00  0.00    +0.000 N 
ATOM      8  H   UNL     1      42.837   4.954  12.066  0.00  0.00    +0.000 HD
BRANCH   7   9
ATOM      9  C   UNL     1      43.683   4.971  10.193  0.00  0.00    +0.000 C 
BRANCH   9  14
ATOM     10  C   UNL     1      45.897   3.545   7.625  0.00  0.00    +0.000 A 
ATOM     11  C   UNL     1      45.972   2.195   7.918  0.00  0.00    +0.000 A 
ATOM     12  C   UNL     1      45.238   1.716   8.998  0.00  0.00    +0.000 A 
ATOM     13  C   UNL     1      44.466   2.602   9.747  0.00  0.00    +0.000 A 
ATOM     14  C   UNL     1      44.445   3.947   9.381  0.00  0.00    +0.000 A 
ATOM     15  N   UNL     1      45.147   4.419   8.326  0.00  0.00    +0.000 NA
BRANCH  10  17
ATOM     16  C   UNL     1      47.050   2.962   5.690  0.00  0.00    +0.000 C 
ATOM     17  O   UNL     1      46.655   4.013   6.571  0.00  0.00    +0.000 OA
ENDBRANCH  10  17
ENDBRANCH   9  14
ENDBRANCH   7   9
ENDBRANCH   1   7
BRANCH   4  18
ATOM     18  C   UNL     1      48.320   6.553  14.509  0.00  0.00    +0.000 C 
BRANCH  18  19
ATOM     19  N   UNL     1      48.139   6.445  15.935  0.00  0.00    +0.000 N 
ATOM     20  C   UNL     1      49.167   6.026  16.743  0.00  0.00    +0.000 C 
ATOM     21  O   UNL     1      50.282   5.774  16.305  0.00  0.00    +0.000 OA
ATOM     22  H   UNL     1      47.182   6.394  16.276  0.00  0.00    +0.000 HD
BRANCH  20  23
ATOM     23  C   UNL     1      48.874   5.961  18.184  0.00  0.00    +0.000 A 
ATOM     24  C   UNL     1      49.126   4.789  18.883  0.00  0.00    +0.000 A 
ATOM     25  S   UNL     1      48.770   4.897  20.548  0.00  0.00    +0.000 S 
ATOM     26  C   UNL     1      48.215   6.497  20.382  0.00  0.00    +0.000 A 
ATOM     27  N   UNL     1      47.728   7.183  21.450  0.00  0.00    +0.000 NA
ATOM     28  C   UNL     1      47.321   8.378  21.175  0.00  0.00    +0.000 A 
ATOM     29  N   UNL     1      47.363   8.951  19.931  0.00  0.00    +0.000 N 
ATOM     30  C   UNL     1      47.871   8.306  18.827  0.00  0.00    +0.000 A 
ATOM     31  O   UNL     1      47.936   8.862  17.737  0.00  0.00    +0.000 OA
ATOM     32  C   UNL     1      48.329   6.952  19.079  0.00  0.00    +0.000 A 
ATOM     33  H   UNL     1      47.042   9.896  19.786  0.00  0.00    +0.000 HD
ENDBRANCH  20  23
ENDBRANCH  18  19
ENDBRANCH   4  18
TORSDOF 7
ENDMDL
MODEL 5
REMARK VINA RESULT:    -6.873      3.423      7.683
REMARK INTER + INTRA:         -10.870
REMARK INTER:                  -9.547
REMARK INTRA:                  -1.323
REMARK UNBOUND:                -1.184
REMARK  Name = 
REMARK  8 active torsions:
REMARK  status: ('A' for Active; 'I' for Inactive)
REMARK    1  A    between atoms: C_1  and  O_2
REMARK    2  A    between atoms: O_2  and  C_3
REMARK    3  A    between atoms: C_7  and  C_8
REMARK    4  A    between atoms: C_8  and  N_9
REMARK    5  A    between atoms: N_9  and  C_10
REMARK    6  A    between atoms: C_13  and  C_14
REMARK    7  A    between atoms: C_14  and  N_15
REMARK    8  A    between atoms: C_16  and  C_18
REMARK                            x       y       z     vdW  Elec       q    Type
REMARK                         _______ _______ _______ _____ _____    ______ ____
ROOT
ATOM      1  C   UNL     1      50.067   7.007  17.593  0.00  0.00    +0.000 A 
ATOM      2  C   UNL     1      50.419   6.633  16.287  0.00  0.00    +0.000 A 
ATOM      3  C   UNL     1      49.804   7.222  15.169  0.00  0.00    +0.000 A 
ATOM      4  C   UNL     1      48.805   8.187  15.333  0.00  0.00    +0.000 A 
ATOM      5  C   UNL     1      48.389   8.497  16.628  0.00  0.00    +0.000 A 
ATOM      6  C   UNL     1      49.006   7.909  17.736  0.00  0.00    +0.000 A 
ENDROOT
BRANCH   1   7
ATOM      7  N   UNL     1      50.671   6.367  18.691  0.00  0.00    +0.000 N 
ATOM      8  H   UNL     1      51.009   7.050  19.370  0.00  0.00    +0.000 HD
BRANCH   7   9
ATOM      9  C   UNL     1      49.869   5.339  19.364  0.00  0.00    +0.000 C 
BRANCH   9  14
ATOM     10  C   UNL     1      49.639   2.509  17.026  0.00  0.00    +0.000 A 
ATOM     11  C   UNL     1      48.301   2.424  16.686  0.00  0.00    +0.000 A 
ATOM     12  C   UNL     1      47.426   3.359  17.230  0.00  0.00    +0.000 A 
ATOM     13  C   UNL     1      47.919   4.335  18.094  0.00  0.00    +0.000 A 
ATOM     14  C   UNL     1      49.282   4.350  18.381  0.00  0.00    +0.000 A 
ATOM     15  N   UNL     1      50.141   3.451  17.848  0.00  0.00    +0.000 NA
BRANCH  10  17
ATOM     16  C   UNL     1      51.607   1.313  17.361  0.00  0.00    +0.000 C 
ATOM     17  O   UNL     1      50.491   1.557  16.505  0.00  0.00    +0.000 OA
ENDBRANCH  10  17
ENDBRANCH   9  14
ENDBRANCH   7   9
ENDBRANCH   1   7
BRANCH   4  18
ATOM     18  C   UNL     1      48.151   8.874  14.164  0.00  0.00    +0.000 C 
BRANCH  18  19
ATOM     19  N   UNL     1      46.977   8.172  13.710  0.00  0.00    +0.000 N 
ATOM     20  C   UNL     1      47.041   7.320  12.635  0.00  0.00    +0.000 C 
ATOM     21  O   UNL     1      48.090   7.083  12.050  0.00  0.00    +0.000 OA
ATOM     22  H   UNL     1      46.076   8.543  14.000  0.00  0.00    +0.000 HD
BRANCH  20  23
ATOM     23  C   UNL     1      45.785   6.649  12.264  0.00  0.00    +0.000 A 
ATOM     24  C   UNL     1      44.752   7.388  11.702  0.00  0.00    +0.000 A 
ATOM     25  S   UNL     1      43.387   6.451  11.294  0.00  0.00    +0.000 S 
ATOM     26  C   UNL     1      44.107   5.034  11.903  0.00  0.00    +0.000 A 
ATOM     27  N   UNL     1      43.442   3.849  11.887  0.00  0.00    +0.000 NA
ATOM     28  C   UNL     1      44.099   2.862  12.402  0.00  0.00    +0.000 A 
ATOM     29  N   UNL     1      45.362   2.953  12.924  0.00  0.00    +0.000 N 
ATOM     30  C   UNL     1      46.084   4.125  12.938  0.00  0.00    +0.000 A 
ATOM     31  O   UNL     1      47.230   4.163  13.372  0.00  0.00    +0.000 OA
ATOM     32  C   UNL     1      45.384   5.269  12.384  0.00  0.00    +0.000 A 
ATOM     33  H   UNL     1      45.827   2.140  13.299  0.00  0.00    +0.000 HD
ENDBRANCH  20  23
ENDBRANCH  18  19
ENDBRANCH   4  18
TORSDOF 7
ENDMDL
MODEL 6
REMARK VINA RESULT:    -6.677      2.717      8.255
REMARK INTER + INTRA:         -10.594
REMARK INTER:                  -9.257
REMARK INTRA:                  -1.337
REMARK UNBOUND:                -1.184
REMARK  Name = 
REMARK  8 active torsions:
REMARK  status: ('A' for Active; 'I' for Inactive)
REMARK    1  A    between atoms: C_1  and  O_2
REMARK    2  A    between atoms: O_2  and  C_3
REMARK    3  A    between atoms: C_7  and  C_8
REMARK    4  A    between atoms: C_8  and  N_9
REMARK    5  A    between atoms: N_9  and  C_10
REMARK    6  A    between atoms: C_13  and  C_14
REMARK    7  A    between atoms: C_14  and  N_15
REMARK    8  A    between atoms: C_16  and  C_18
REMARK                            x       y       z     vdW  Elec       q    Type
REMARK                         _______ _______ _______ _____ _____    ______ ____
ROOT
ATOM      1  C   UNL     1      49.636   8.189  15.824  0.00  0.00    +0.000 A 
ATOM      2  C   UNL     1      50.222   7.456  14.781  0.00  0.00    +0.000 A 
ATOM      3  C   UNL     1      49.600   7.349  13.525  0.00  0.00    +0.000 A 
ATOM      4  C   UNL     1      48.362   7.957  13.291  0.00  0.00    +0.000 A 
ATOM      5  C   UNL     1      47.734   8.611  14.351  0.00  0.00    +0.000 A 
ATOM      6  C   UNL     1      48.359   8.716  15.596  0.00  0.00    +0.000 A 
ENDROOT
BRANCH   1   7
ATOM      7  N   UNL     1      50.265   8.241  17.082  0.00  0.00    +0.000 N 
ATOM      8  H   UNL     1      50.346   9.204  17.409  0.00  0.00    +0.000 HD
BRANCH   7   9
ATOM      9  C   UNL     1      49.682   7.398  18.133  0.00  0.00    +0.000 C 
BRANCH   9  14
ATOM     10  C   UNL     1      49.408   3.790  17.475  0.00  0.00    +0.000 A 
ATOM     11  C   UNL     1      50.703   3.308  17.538  0.00  0.00    +0.000 A 
ATOM     12  C   UNL     1      51.723   4.207  17.838  0.00  0.00    +0.000 A 
ATOM     13  C   UNL     1      51.411   5.547  18.056  0.00  0.00    +0.000 A 
ATOM     14  C   UNL     1      50.079   5.947  17.975  0.00  0.00    +0.000 A 
ATOM     15  N   UNL     1      49.080   5.079  17.694  0.00  0.00    +0.000 NA
BRANCH  10  17
ATOM     16  C   UNL     1      47.110   3.465  17.300  0.00  0.00    +0.000 C 
ATOM     17  O   UNL     1      48.410   2.896  17.145  0.00  0.00    +0.000 OA
ENDBRANCH  10  17
ENDBRANCH   9  14
ENDBRANCH   7   9
ENDBRANCH   1   7
BRANCH   4  18
ATOM     18  C   UNL     1      47.681   7.904  11.949  0.00  0.00    +0.000 C 
BRANCH  18  19
ATOM     19  N   UNL     1      46.975   6.664  11.749  0.00  0.00    +0.000 N 
ATOM     20  C   UNL     1      45.609   6.605  11.878  0.00  0.00    +0.000 C 
ATOM     21  O   UNL     1      44.931   7.598  12.117  0.00  0.00    +0.000 OA
ATOM     22  H   UNL     1      47.519   5.807  11.811  0.00  0.00    +0.000 HD
BRANCH  20  23
ATOM     23  C   UNL     1      44.990   5.291  11.643  0.00  0.00    +0.000 A 
ATOM     24  C   UNL     1      44.297   4.666  12.671  0.00  0.00    +0.000 A 
ATOM     25  S   UNL     1      43.609   3.171  12.219  0.00  0.00    +0.000 S 
ATOM     26  C   UNL     1      44.261   3.282  10.650  0.00  0.00    +0.000 A 
ATOM     27  N   UNL     1      44.068   2.290   9.741  0.00  0.00    +0.000 NA
ATOM     28  C   UNL     1      44.637   2.496   8.600  0.00  0.00    +0.000 A 
ATOM     29  N   UNL     1      45.375   3.606   8.284  0.00  0.00    +0.000 N 
ATOM     30  C   UNL     1      45.575   4.647   9.161  0.00  0.00    +0.000 A 
ATOM     31  O   UNL     1      46.203   5.647   8.832  0.00  0.00    +0.000 OA
ATOM     32  C   UNL     1      44.967   4.459  10.465  0.00  0.00    +0.000 A 
ATOM     33  H   UNL     1      45.782   3.713   7.367  0.00  0.00    +0.000 HD
ENDBRANCH  20  23
ENDBRANCH  18  19
ENDBRANCH   4  18
TORSDOF 7
ENDMDL
MODEL 7
REMARK VINA RESULT:    -6.373      3.981      9.961
REMARK INTER + INTRA:         -10.165
REMARK INTER:                  -9.325
REMARK INTRA:                  -0.840
REMARK UNBOUND:                -1.184
REMARK  Name = 
REMARK  8 active torsions:
REMARK  status: ('A' for Active; 'I' for Inactive)
REMARK    1  A    between atoms: C_1  and  O_2
REMARK    2  A    between atoms: O_2  and  C_3
REMARK    3  A    between atoms: C_7  and  C_8
REMARK    4  A    between atoms: C_8  and  N_9
REMARK    5  A    between atoms: N_9  and  C_10
REMARK    6  A    between atoms: C_13  and  C_14
REMARK    7  A    between atoms: C_14  and  N_15
REMARK    8  A    between atoms: C_16  and  C_18
REMARK                            x       y       z     vdW  Elec       q    Type
REMARK                         _______ _______ _______ _____ _____    ______ ____
ROOT
ATOM      1  C   UNL     1      48.409   5.529  20.363  0.00  0.00    +0.000 A 
ATOM      2  C   UNL     1      47.260   5.864  19.631  0.00  0.00    +0.000 A 
ATOM      3  C   UNL     1      47.016   5.310  18.362  0.00  0.00    +0.000 A 
ATOM      4  C   UNL     1      47.930   4.421  17.787  0.00  0.00    +0.000 A 
ATOM      5  C   UNL     1      49.116   4.154  18.473  0.00  0.00    +0.000 A 
ATOM      6  C   UNL     1      49.351   4.707  19.734  0.00  0.00    +0.000 A 
ENDROOT
BRANCH   1   7
ATOM      7  N   UNL     1      48.644   6.134  21.612  0.00  0.00    +0.000 N 
ATOM      8  H   UNL     1      49.114   5.489  22.247  0.00  0.00    +0.000 HD
BRANCH   7   9
ATOM      9  C   UNL     1      49.349   7.421  21.585  0.00  0.00    +0.000 C 
BRANCH   9  14
ATOM     10  C   UNL     1      47.890  10.458  20.111  0.00  0.00    +0.000 A 
ATOM     11  C   UNL     1      46.689  10.644  20.773  0.00  0.00    +0.000 A 
ATOM     12  C   UNL     1      46.347   9.742  21.776  0.00  0.00    +0.000 A 
ATOM     13  C   UNL     1      47.211   8.690  22.073  0.00  0.00    +0.000 A 
ATOM     14  C   UNL     1      48.402   8.578  21.359  0.00  0.00    +0.000 A 
ATOM     15  N   UNL     1      48.747   9.456  20.390  0.00  0.00    +0.000 NA
BRANCH  10  17
ATOM     16  C   UNL     1      47.079  12.129  18.710  0.00  0.00    +0.000 C 
ATOM     17  O   UNL     1      48.203  11.340  19.097  0.00  0.00    +0.000 OA
ENDBRANCH  10  17
ENDBRANCH   9  14
ENDBRANCH   7   9
ENDBRANCH   1   7
BRANCH   4  18
ATOM     18  C   UNL     1      47.688   3.771  16.450  0.00  0.00    +0.000 C 
BRANCH  18  19
ATOM     19  N   UNL     1      47.063   4.672  15.516  0.00  0.00    +0.000 N 
ATOM     20  C   UNL     1      46.822   4.284  14.221  0.00  0.00    +0.000 C 
ATOM     21  O   UNL     1      47.080   3.157  13.817  0.00  0.00    +0.000 OA
ATOM     22  H   UNL     1      47.084   5.663  15.745  0.00  0.00    +0.000 HD
BRANCH  20  23
ATOM     23  C   UNL     1      46.171   5.280  13.356  0.00  0.00    +0.000 A 
ATOM     24  C   UNL     1      46.860   6.430  12.994  0.00  0.00    +0.000 A 
ATOM     25  S   UNL     1      45.977   7.457  11.957  0.00  0.00    +0.000 S 
ATOM     26  C   UNL     1      44.623   6.426  11.998  0.00  0.00    +0.000 A 
ATOM     27  N   UNL     1      43.482   6.742  11.329  0.00  0.00    +0.000 NA
ATOM     28  C   UNL     1      42.528   5.882  11.467  0.00  0.00    +0.000 A 
ATOM     29  N   UNL     1      42.614   4.732  12.207  0.00  0.00    +0.000 N 
ATOM     30  C   UNL     1      43.754   4.358  12.879  0.00  0.00    +0.000 A 
ATOM     31  O   UNL     1      43.813   3.301  13.497  0.00  0.00    +0.000 OA
ATOM     32  C   UNL     1      44.853   5.299  12.769  0.00  0.00    +0.000 A 
ATOM     33  H   UNL     1      41.835   4.094  12.262  0.00  0.00    +0.000 HD
ENDBRANCH  20  23
ENDBRANCH  18  19
ENDBRANCH   4  18
TORSDOF 7
ENDMDL
MODEL 8
REMARK VINA RESULT:    -6.333      2.469      2.962
REMARK INTER + INTRA:         -10.108
REMARK INTER:                  -9.100
REMARK INTRA:                  -1.008
REMARK UNBOUND:                -1.184
REMARK  Name = 
REMARK  8 active torsions:
REMARK  status: ('A' for Active; 'I' for Inactive)
REMARK    1  A    between atoms: C_1  and  O_2
REMARK    2  A    between atoms: O_2  and  C_3
REMARK    3  A    between atoms: C_7  and  C_8
REMARK    4  A    between atoms: C_8  and  N_9
REMARK    5  A    between atoms: N_9  and  C_10
REMARK    6  A    between atoms: C_13  and  C_14
REMARK    7  A    between atoms: C_14  and  N_15
REMARK    8  A    between atoms: C_16  and  C_18
REMARK                            x       y       z     vdW  Elec       q    Type
REMARK                         _______ _______ _______ _____ _____    ______ ____
ROOT
ATOM      1  C   UNL     1      45.440   7.335  11.873  0.00  0.00    +0.000 A 
ATOM      2  C   UNL     1      46.384   6.297  11.831  0.00  0.00    +0.000 A 
ATOM      3  C   UNL     1      47.481   6.274  12.708  0.00  0.00    +0.000 A 
ATOM      4  C   UNL     1      47.672   7.303  13.636  0.00  0.00    +0.000 A 
ATOM      5  C   UNL     1      46.786   8.381  13.621  0.00  0.00    +0.000 A 
ATOM      6  C   UNL     1      45.696   8.397  12.747  0.00  0.00    +0.000 A 
ENDROOT
BRANCH   1   7
ATOM      7  N   UNL     1      44.376   7.351  10.952  0.00  0.00    +0.000 N 
ATOM      8  H   UNL     1      44.701   7.111  10.015  0.00  0.00    +0.000 HD
BRANCH   7   9
ATOM      9  C   UNL     1      43.203   6.541  11.303  0.00  0.00    +0.000 C 
BRANCH   9  14
ATOM     10  C   UNL     1      44.127   3.461   9.518  0.00  0.00    +0.000 A 
ATOM     11  C   UNL     1      44.001   2.446  10.451  0.00  0.00    +0.000 A 
ATOM     12  C   UNL     1      43.564   2.782  11.729  0.00  0.00    +0.000 A 
ATOM     13  C   UNL     1      43.278   4.113  12.026  0.00  0.00    +0.000 A 
ATOM     14  C   UNL     1      43.430   5.071  11.026  0.00  0.00    +0.000 A 
ATOM     15  N   UNL     1      43.844   4.752   9.779  0.00  0.00    +0.000 NA
BRANCH  10  17
ATOM     16  C   UNL     1      45.916   3.599   8.038  0.00  0.00    +0.000 C 
ATOM     17  O   UNL     1      44.591   3.120   8.265  0.00  0.00    +0.000 OA
ENDBRANCH  10  17
ENDBRANCH   9  14
ENDBRANCH   7   9
ENDBRANCH   1   7
BRANCH   4  18
ATOM     18  C   UNL     1      48.809   7.296  14.624  0.00  0.00    +0.000 C 
BRANCH  18  19
ATOM     19  N   UNL     1      48.347   7.429  15.982  0.00  0.00    +0.000 N 
ATOM     20  C   UNL     1      48.942   8.318  16.842  0.00  0.00    +0.000 C 
ATOM     21  O   UNL     1      49.848   9.063  16.488  0.00  0.00    +0.000 OA
ATOM     22  H   UNL     1      47.796   6.662  16.359  0.00  0.00    +0.000 HD
BRANCH  20  23
ATOM     23  C   UNL     1      48.385   8.378  18.202  0.00  0.00    +0.000 A 
ATOM     24  C   UNL     1      48.004   9.603  18.735  0.00  0.00    +0.000 A 
ATOM     25  S   UNL     1      47.341   9.488  20.303  0.00  0.00    +0.000 S 
ATOM     26  C   UNL     1      47.589   7.805  20.345  0.00  0.00    +0.000 A 
ATOM     27  N   UNL     1      47.259   7.077  21.445  0.00  0.00    +0.000 NA
ATOM     28  C   UNL     1      47.523   5.816  21.348  0.00  0.00    +0.000 A 
ATOM     29  N   UNL     1      48.079   5.217  20.249  0.00  0.00    +0.000 N 
ATOM     30  C   UNL     1      48.405   5.908  19.104  0.00  0.00    +0.000 A 
ATOM     31  O   UNL     1      48.861   5.335  18.121  0.00  0.00    +0.000 OA
ATOM     32  C   UNL     1      48.142   7.333  19.167  0.00  0.00    +0.000 A 
ATOM     33  H   UNL     1      48.247   4.222  20.231  0.00  0.00    +0.000 HD
ENDBRANCH  20  23
ENDBRANCH  18  19
ENDBRANCH   4  18
TORSDOF 7
ENDMDL
MODEL 9
REMARK VINA RESULT:    -6.229      2.716      3.847
REMARK INTER + INTRA:          -9.962
REMARK INTER:                  -8.808
REMARK INTRA:                  -1.154
REMARK UNBOUND:                -1.184
REMARK  Name = 
REMARK  8 active torsions:
REMARK  status: ('A' for Active; 'I' for Inactive)
REMARK    1  A    between atoms: C_1  and  O_2
REMARK    2  A    between atoms: O_2  and  C_3
REMARK    3  A    between atoms: C_7  and  C_8
REMARK    4  A    between atoms: C_8  and  N_9
REMARK    5  A    between atoms: N_9  and  C_10
REMARK    6  A    between atoms: C_13  and  C_14
REMARK    7  A    between atoms: C_14  and  N_15
REMARK    8  A    between atoms: C_16  and  C_18
REMARK                            x       y       z     vdW  Elec       q    Type
REMARK                         _______ _______ _______ _____ _____    ______ ____
ROOT
ATOM      1  C   UNL     1      47.537   7.112  13.020  0.00  0.00    +0.000 A 
ATOM      2  C   UNL     1      47.864   8.394  13.488  0.00  0.00    +0.000 A 
ATOM      3  C   UNL     1      48.499   8.577  14.729  0.00  0.00    +0.000 A 
ATOM      4  C   UNL     1      48.804   7.479  15.540  0.00  0.00    +0.000 A 
ATOM      5  C   UNL     1      48.401   6.212  15.119  0.00  0.00    +0.000 A 
ATOM      6  C   UNL     1      47.772   6.036  13.884  0.00  0.00    +0.000 A 
ENDROOT
BRANCH   1   7
ATOM      7  N   UNL     1      46.863   6.966  11.793  0.00  0.00    +0.000 N 
ATOM      8  H   UNL     1      47.136   6.101  11.328  0.00  0.00    +0.000 HD
BRANCH   7   9
ATOM      9  C   UNL     1      45.401   7.076  11.840  0.00  0.00    +0.000 C 
BRANCH   9  14
ATOM     10  C   UNL     1      44.647   3.549  11.119  0.00  0.00    +0.000 A 
ATOM     11  C   UNL     1      43.694   3.181  12.052  0.00  0.00    +0.000 A 
ATOM     12  C   UNL     1      43.251   4.146  12.952  0.00  0.00    +0.000 A 
ATOM     13  C   UNL     1      43.781   5.433  12.890  0.00  0.00    +0.000 A 
ATOM     14  C   UNL     1      44.736   5.719  11.917  0.00  0.00    +0.000 A 
ATOM     15  N   UNL     1      45.165   4.790  11.032  0.00  0.00    +0.000 NA
BRANCH  10  17
ATOM     16  C   UNL     1      44.535   2.712   8.951  0.00  0.00    +0.000 C 
ATOM     17  O   UNL     1      45.101   2.575  10.254  0.00  0.00    +0.000 OA
ENDBRANCH  10  17
ENDBRANCH   9  14
ENDBRANCH   7   9
ENDBRANCH   1   7
BRANCH   4  18
ATOM     18  C   UNL     1      49.523   7.626  16.855  0.00  0.00    +0.000 C 
BRANCH  18  19
ATOM     19  N   UNL     1      50.425   6.531  17.104  0.00  0.00    +0.000 N 
ATOM     20  C   UNL     1      50.653   6.085  18.383  0.00  0.00    +0.000 C 
ATOM     21  O   UNL     1      50.073   6.558  19.353  0.00  0.00    +0.000 OA
ATOM     22  H   UNL     1      51.095   6.309  16.371  0.00  0.00    +0.000 HD
BRANCH  20  23
ATOM     23  C   UNL     1      51.586   4.956  18.520  0.00  0.00    +0.000 A 
ATOM     24  C   UNL     1      52.806   5.147  19.156  0.00  0.00    +0.000 A 
ATOM     25  S   UNL     1      53.747   3.729  19.266  0.00  0.00    +0.000 S 
ATOM     26  C   UNL     1      52.580   2.822  18.420  0.00  0.00    +0.000 A 
ATOM     27  N   UNL     1      52.784   1.507  18.142  0.00  0.00    +0.000 NA
ATOM     28  C   UNL     1      51.828   0.950  17.475  0.00  0.00    +0.000 A 
ATOM     29  N   UNL     1      50.684   1.586  17.069  0.00  0.00    +0.000 N 
ATOM     30  C   UNL     1      50.423   2.908  17.351  0.00  0.00    +0.000 A 
ATOM     31  O   UNL     1      49.370   3.436  17.011  0.00  0.00    +0.000 OA
ATOM     32  C   UNL     1      51.475   3.585  18.086  0.00  0.00    +0.000 A 
ATOM     33  H   UNL     1      49.967   1.089  16.563  0.00  0.00    +0.000 HD
ENDBRANCH  20  23
ENDBRANCH  18  19
ENDBRANCH   4  18
TORSDOF 7
ENDMDL
