MODEL 1
REMARK VINA RESULT:    -8.967      0.000      0.000
REMARK INTER + INTRA:         -12.136
REMARK INTER:                 -11.588
REMARK INTRA:                  -0.547
REMARK UNBOUND:                -0.547
REMARK  Name = 
REMARK  5 active torsions:
REMARK  status: ('A' for Active; 'I' for Inactive)
REMARK    1  A    between atoms: C_2  and  C_18
REMARK    2  A    between atoms: N_3  and  C_4
REMARK    3  A    between atoms: C_4  and  C_5
REMARK    4  A    between atoms: C_8  and  C_9
REMARK    5  A    between atoms: C_9  and  C_10
REMARK                            x       y       z     vdW  Elec       q    Type
REMARK                         _______ _______ _______ _____ _____    ______ ____
ROOT
ATOM      1  O   UNL     1      48.859   6.535  13.006  0.00  0.00    +0.000 OA
ATOM      2  C   UNL     1      48.144   6.544  14.005  0.00  0.00    +0.000 C 
ATOM      3  N   UNL     1      46.812   6.865  13.954  0.00  0.00    +0.000 N 
ATOM      4  H   UNL     1      46.311   7.022  14.821  0.00  0.00    +0.000 HD
ENDROOT
BRANCH   2   5
ATOM      5  C   UNL     1      48.653   6.142  15.323  0.00  0.00    +0.000 A 
ATOM      6  C   UNL     1      49.661   6.869  15.938  0.00  0.00    +0.000 A 
ATOM      7  S   UNL     1      50.138   6.230  17.448  0.00  0.00    +0.000 S 
ATOM      8  C   UNL     1      48.978   4.983  17.354  0.00  0.00    +0.000 A 
ATOM      9  N   UNL     1      48.837   4.071  18.347  0.00  0.00    +0.000 NA
ATOM     10  C   UNL     1      47.894   3.211  18.155  0.00  0.00    +0.000 A 
ATOM     11  N   UNL     1      47.079   3.178  17.055  0.00  0.00    +0.000 N 
ATOM     12  C   UNL     1      47.236   4.029  15.989  0.00  0.00    +0.000 A 
ATOM     13  O   UNL     1      46.589   3.876  14.959  0.00  0.00    +0.000 OA
ATOM     14  C   UNL     1      48.255   5.044  16.173  0.00  0.00    +0.000 A 
ATOM     15  H   UNL     1      46.377   2.457  16.947  0.00  0.00    +0.000 HD
ENDBRANCH   2   5
BRANCH   3  16
ATOM     16  C   UNL     1      46.149   7.292  12.751  0.00  0.00    +0.000 C 
BRANCH  16  17
ATOM     17  C   UNL     1      45.701   6.138  11.905  0.00  0.00    +0.000 A 
ATOM     18  C   UNL     1      45.054   5.026  12.452  0.00  0.00    +0.000 A 
ATOM     19  C   UNL     1      44.670   3.969  11.627  0.00  0.00    +0.000 A 
ATOM     20  C   UNL     1      44.929   4.049  10.260  0.00  0.00    +0.000 A 
ATOM     21  N   UNL     1      45.551   5.121   9.708  0.00  0.00    +0.000 NA
ATOM     22  C   UNL     1      45.911   6.135  10.531  0.00  0.00    +0.000 A 
BRANCH  20  23
ATOM     23  C   UNL     1      44.480   2.948   9.321  0.00  0.00    +0.000 C 
BRANCH  23  24
ATOM     24  C   UNL     1      45.502   2.591   8.261  0.00  0.00    +0.000 A 
ATOM     25  C   UNL     1      45.784   3.487   7.219  0.00  0.00    +0.000 A 
ATOM     26  C   UNL     1      46.697   3.152   6.217  0.00  0.00    +0.000 A 
ATOM     27  C   UNL     1      47.353   1.925   6.256  0.00  0.00    +0.000 A 
ATOM     28  C   UNL     1      47.110   1.040   7.305  0.00  0.00    +0.000 A 
ATOM     29  C   UNL     1      46.189   1.370   8.303  0.00  0.00    +0.000 A 
ENDBRANCH  23  24
ENDBRANCH  20  23
ENDBRANCH  16  17
ENDBRANCH   3  16
TORSDOF 5
ENDMDL
MODEL 2
REMARK VINA RESULT:    -8.468      1.641      2.450
REMARK INTER + INTRA:         -11.491
REMARK INTER:                 -10.875
REMARK INTRA:                  -0.616
REMARK UNBOUND:                -0.547
REMARK  Name = 
REMARK  5 active torsions:
REMARK  status: ('A' for Active; 'I' for Inactive)
REMARK    1  A    between atoms: C_2  and  C_18
REMARK    2  A    between atoms: N_3  and  C_4
REMARK    3  A    between atoms: C_4  and  C_5
REMARK    4  A    between atoms: C_8  and  C_9
REMARK    5  A    between atoms: C_9  and  C_10
REMARK                            x       y       z     vdW  Elec       q    Type
REMARK                         _______ _______ _______ _____ _____    ______ ____
ROOT
ATOM      1  O   UNL     1      48.829   6.214  14.254  0.00  0.00    +0.000 OA
ATOM      2  C   UNL     1      47.845   5.744  14.819  0.00  0.00    +0.000 C 
ATOM      3  N   UNL     1      46.583   5.821  14.286  0.00  0.00    +0.000 N 
ATOM      4  H   UNL     1      45.789   5.571  14.865  0.00  0.00    +0.000 HD
ENDROOT
BRANCH   2   5
ATOM      5  C   UNL     1      47.959   4.999  16.079  0.00  0.00    +0.000 A 
ATOM      6  C   UNL     1      47.651   3.648  16.126  0.00  0.00    +0.000 A 
ATOM      7  S   UNL     1      47.816   2.966  17.683  0.00  0.00    +0.000 S 
ATOM      8  C   UNL     1      48.352   4.445  18.340  0.00  0.00    +0.000 A 
ATOM      9  N   UNL     1      48.689   4.558  19.648  0.00  0.00    +0.000 NA
ATOM     10  C   UNL     1      49.114   5.727  19.994  0.00  0.00    +0.000 A 
ATOM     11  N   UNL     1      49.229   6.797  19.148  0.00  0.00    +0.000 N 
ATOM     12  C   UNL     1      48.825   6.754  17.836  0.00  0.00    +0.000 A 
ATOM     13  O   UNL     1      48.803   7.768  17.150  0.00  0.00    +0.000 OA
ATOM     14  C   UNL     1      48.381   5.450  17.386  0.00  0.00    +0.000 A 
ATOM     15  H   UNL     1      49.538   7.699  19.487  0.00  0.00    +0.000 HD
ENDBRANCH   2   5
BRANCH   3  16
ATOM     16  C   UNL     1      46.284   6.522  13.066  0.00  0.00    +0.000 C 
BRANCH  16  17
ATOM     17  C   UNL     1      45.841   5.599  11.971  0.00  0.00    +0.000 A 
ATOM     18  C   UNL     1      45.838   5.989  10.629  0.00  0.00    +0.000 A 
ATOM     19  C   UNL     1      45.401   5.101   9.646  0.00  0.00    +0.000 A 
ATOM     20  C   UNL     1      44.984   3.826  10.025  0.00  0.00    +0.000 A 
ATOM     21  N   UNL     1      44.983   3.425  11.321  0.00  0.00    +0.000 NA
ATOM     22  C   UNL     1      45.416   4.306  12.254  0.00  0.00    +0.000 A 
BRANCH  20  23
ATOM     23  C   UNL     1      44.553   2.812   8.984  0.00  0.00    +0.000 C 
BRANCH  23  24
ATOM     24  C   UNL     1      45.626   2.483   7.967  0.00  0.00    +0.000 A 
ATOM     25  C   UNL     1      46.368   1.298   8.078  0.00  0.00    +0.000 A 
ATOM     26  C   UNL     1      47.384   1.003   7.166  0.00  0.00    +0.000 A 
ATOM     27  C   UNL     1      47.656   1.881   6.120  0.00  0.00    +0.000 A 
ATOM     28  C   UNL     1      46.903   3.045   5.976  0.00  0.00    +0.000 A 
ATOM     29  C   UNL     1      45.892   3.346   6.894  0.00  0.00    +0.000 A 
ENDBRANCH  23  24
ENDBRANCH  20  23
ENDBRANCH  16  17
ENDBRANCH   3  16
TORSDOF 5
ENDMDL
MODEL 3
REMARK VINA RESULT:    -8.317      0.924      1.231
REMARK INTER + INTRA:         -11.295
REMARK INTER:                 -10.468
REMARK INTRA:                  -0.827
REMARK UNBOUND:                -0.547
REMARK  Name = 
REMARK  5 active torsions:
REMARK  status: ('A' for Active; 'I' for Inactive)
REMARK    1  A    between atoms: C_2  and  C_18
REMARK    2  A    between atoms: N_3  and  C_4
REMARK    3  A    between atoms: C_4  and  C_5
REMARK    4  A    between atoms: C_8  and  C_9
REMARK    5  A    between atoms: C_9  and  C_10
REMARK                            x       y       z     vdW  Elec       q    Type
REMARK                         _______ _______ _______ _____ _____    ______ ____
ROOT
ATOM      1  O   UNL     1      49.407   6.904  13.594  0.00  0.00    +0.000 OA
ATOM      2  C   UNL     1      48.614   6.900  14.532  0.00  0.00    +0.000 C 
ATOM      3  N   UNL     1      47.343   7.406  14.425  0.00  0.00    +0.000 N 
ATOM      4  H   UNL     1      46.792   7.531  15.267  0.00  0.00    +0.000 HD
ENDROOT
BRANCH   2   5
ATOM      5  C   UNL     1      48.947   6.284  15.823  0.00  0.00    +0.000 A 
ATOM      6  C   UNL     1      49.933   6.833  16.629  0.00  0.00    +0.000 A 
ATOM      7  S   UNL     1      50.197   5.960  18.072  0.00  0.00    +0.000 S 
ATOM      8  C   UNL     1      48.968   4.840  17.691  0.00  0.00    +0.000 A 
ATOM      9  N   UNL     1      48.656   3.820  18.527  0.00  0.00    +0.000 NA
ATOM     10  C   UNL     1      47.679   3.078  18.126  0.00  0.00    +0.000 A 
ATOM     11  N   UNL     1      46.987   3.262  16.959  0.00  0.00    +0.000 N 
ATOM     12  C   UNL     1      47.319   4.230  16.043  0.00  0.00    +0.000 A 
ATOM     13  O   UNL     1      46.778   4.272  14.945  0.00  0.00    +0.000 OA
ATOM     14  C   UNL     1      48.382   5.120  16.466  0.00  0.00    +0.000 A 
ATOM     15  H   UNL     1      46.252   2.624  16.683  0.00  0.00    +0.000 HD
ENDBRANCH   2   5
BRANCH   3  16
ATOM     16  C   UNL     1      46.851   8.055  13.239  0.00  0.00    +0.000 C 
BRANCH  16  17
ATOM     17  C   UNL     1      46.077   7.122  12.357  0.00  0.00    +0.000 A 
ATOM     18  C   UNL     1      44.864   7.493  11.770  0.00  0.00    +0.000 A 
ATOM     19  C   UNL     1      44.172   6.585  10.969  0.00  0.00    +0.000 A 
ATOM     20  C   UNL     1      44.715   5.319  10.757  0.00  0.00    +0.000 A 
ATOM     21  N   UNL     1      45.894   4.940  11.313  0.00  0.00    +0.000 NA
ATOM     22  C   UNL     1      46.547   5.842  12.083  0.00  0.00    +0.000 A 
BRANCH  20  23
ATOM     23  C   UNL     1      44.024   4.321   9.850  0.00  0.00    +0.000 C 
BRANCH  23  24
ATOM     24  C   UNL     1      44.971   3.535   8.968  0.00  0.00    +0.000 A 
ATOM     25  C   UNL     1      45.711   4.183   7.967  0.00  0.00    +0.000 A 
ATOM     26  C   UNL     1      46.558   3.462   7.125  0.00  0.00    +0.000 A 
ATOM     27  C   UNL     1      46.691   2.085   7.285  0.00  0.00    +0.000 A 
ATOM     28  C   UNL     1      45.990   1.432   8.298  0.00  0.00    +0.000 A 
ATOM     29  C   UNL     1      45.134   2.152   9.136  0.00  0.00    +0.000 A 
ENDBRANCH  23  24
ENDBRANCH  20  23
ENDBRANCH  16  17
ENDBRANCH   3  16
TORSDOF 5
ENDMDL
MODEL 4
REMARK VINA RESULT:    -8.251      1.653      2.250
REMARK INTER + INTRA:         -11.209
REMARK INTER:                 -10.539
REMARK INTRA:                  -0.671
REMARK UNBOUND:                -0.547
REMARK  Name = 
REMARK  5 active torsions:
REMARK  status: ('A' for Active; 'I' for Inactive)
REMARK    1  A    between atoms: C_2  and  C_18
REMARK    2  A    between atoms: N_3  and  C_4
REMARK    3  A    between atoms: C_4  and  C_5
REMARK    4  A    between atoms: C_8  and  C_9
REMARK    5  A    between atoms: C_9  and  C_10
REMARK                            x       y       z     vdW  Elec       q    Type
REMARK                         _______ _______ _______ _____ _____    ______ ____
ROOT
ATOM      1  O   UNL     1      46.978   3.251  13.942  0.00  0.00    +0.000 OA
ATOM      2  C   UNL     1      46.697   4.410  14.235  0.00  0.00    +0.000 C 
ATOM      3  N   UNL     1      45.435   4.924  14.080  0.00  0.00    +0.000 N 
ATOM      4  H   UNL     1      45.296   5.924  14.175  0.00  0.00    +0.000 HD
ENDROOT
BRANCH   2   5
ATOM      5  C   UNL     1      47.682   5.314  14.844  0.00  0.00    +0.000 A 
ATOM      6  C   UNL     1      48.334   6.263  14.071  0.00  0.00    +0.000 A 
ATOM      7  S   UNL     1      49.462   7.197  14.950  0.00  0.00    +0.000 S 
ATOM      8  C   UNL     1      49.083   6.395  16.406  0.00  0.00    +0.000 A 
ATOM      9  N   UNL     1      49.688   6.724  17.574  0.00  0.00    +0.000 NA
ATOM     10  C   UNL     1      49.272   6.060  18.599  0.00  0.00    +0.000 A 
ATOM     11  N   UNL     1      48.306   5.090  18.562  0.00  0.00    +0.000 N 
ATOM     12  C   UNL     1      47.724   4.666  17.392  0.00  0.00    +0.000 A 
ATOM     13  O   UNL     1      46.975   3.697  17.375  0.00  0.00    +0.000 OA
ATOM     14  C   UNL     1      48.125   5.412  16.215  0.00  0.00    +0.000 A 
ATOM     15  H   UNL     1      48.046   4.580  19.396  0.00  0.00    +0.000 HD
ENDBRANCH   2   5
BRANCH   3  16
ATOM     16  C   UNL     1      44.350   4.185  13.491  0.00  0.00    +0.000 C 
BRANCH  16  17
ATOM     17  C   UNL     1      44.443   4.128  11.995  0.00  0.00    +0.000 A 
ATOM     18  C   UNL     1      45.109   5.110  11.257  0.00  0.00    +0.000 A 
ATOM     19  C   UNL     1      45.155   5.023   9.865  0.00  0.00    +0.000 A 
ATOM     20  C   UNL     1      44.541   3.943   9.235  0.00  0.00    +0.000 A 
ATOM     21  N   UNL     1      43.893   2.976   9.934  0.00  0.00    +0.000 NA
ATOM     22  C   UNL     1      43.866   3.083  11.283  0.00  0.00    +0.000 A 
BRANCH  20  23
ATOM     23  C   UNL     1      44.613   3.781   7.730  0.00  0.00    +0.000 C 
BRANCH  23  24
ATOM     24  C   UNL     1      45.805   2.976   7.256  0.00  0.00    +0.000 A 
ATOM     25  C   UNL     1      46.514   3.367   6.110  0.00  0.00    +0.000 A 
ATOM     26  C   UNL     1      47.591   2.611   5.644  0.00  0.00    +0.000 A 
ATOM     27  C   UNL     1      47.986   1.465   6.330  0.00  0.00    +0.000 A 
ATOM     28  C   UNL     1      47.314   1.085   7.491  0.00  0.00    +0.000 A 
ATOM     29  C   UNL     1      46.230   1.836   7.953  0.00  0.00    +0.000 A 
ENDBRANCH  23  24
ENDBRANCH  20  23
ENDBRANCH  16  17
ENDBRANCH   3  16
TORSDOF 5
ENDMDL
MODEL 5
REMARK VINA RESULT:    -8.234      3.452      4.244
REMARK INTER + INTRA:         -11.188
REMARK INTER:                 -10.207
REMARK INTRA:                  -0.981
REMARK UNBOUND:                -0.547
REMARK  Name = 
REMARK  5 active torsions:
REMARK  status: ('A' for Active; 'I' for Inactive)
REMARK    1  A    between atoms: C_2  and  C_18
REMARK    2  A    between atoms: N_3  and  C_4
REMARK    3  A    between atoms: C_4  and  C_5
REMARK    4  A    between atoms: C_8  and  C_9
REMARK    5  A    between atoms: C_9  and  C_10
REMARK                            x       y       z     vdW  Elec       q    Type
REMARK                         _______ _______ _______ _____ _____    ______ ____
ROOT
ATOM      1  O   UNL     1      44.534   8.713  11.215  0.00  0.00    +0.000 OA
ATOM      2  C   UNL     1      45.389   8.448  12.055  0.00  0.00    +0.000 C 
ATOM      3  N   UNL     1      45.283   7.374  12.901  0.00  0.00    +0.000 N 
ATOM      4  H   UNL     1      45.926   7.298  13.682  0.00  0.00    +0.000 HD
ENDROOT
BRANCH   2   5
ATOM      5  C   UNL     1      46.629   9.227  12.167  0.00  0.00    +0.000 A 
ATOM      6  C   UNL     1      46.589  10.613  12.177  0.00  0.00    +0.000 A 
ATOM      7  S   UNL     1      48.131  11.338  12.283  0.00  0.00    +0.000 S 
ATOM      8  C   UNL     1      48.906   9.821  12.367  0.00  0.00    +0.000 A 
ATOM      9  N   UNL     1      50.252   9.719  12.487  0.00  0.00    +0.000 NA
ATOM     10  C   UNL     1      50.692   8.509  12.578  0.00  0.00    +0.000 A 
ATOM     11  N   UNL     1      49.905   7.388  12.556  0.00  0.00    +0.000 N 
ATOM     12  C   UNL     1      48.548   7.438  12.355  0.00  0.00    +0.000 A 
ATOM     13  O   UNL     1      47.897   6.413  12.191  0.00  0.00    +0.000 OA
ATOM     14  C   UNL     1      47.997   8.777  12.291  0.00  0.00    +0.000 A 
ATOM     15  H   UNL     1      50.314   6.464  12.598  0.00  0.00    +0.000 HD
ENDBRANCH   2   5
BRANCH   3  16
ATOM     16  C   UNL     1      44.134   6.510  12.937  0.00  0.00    +0.000 C 
BRANCH  16  17
ATOM     17  C   UNL     1      44.275   5.332  12.020  0.00  0.00    +0.000 A 
ATOM     18  C   UNL     1      45.048   4.218  12.359  0.00  0.00    +0.000 A 
ATOM     19  C   UNL     1      45.163   3.153  11.466  0.00  0.00    +0.000 A 
ATOM     20  C   UNL     1      44.488   3.216  10.249  0.00  0.00    +0.000 A 
ATOM     21  N   UNL     1      43.728   4.285   9.902  0.00  0.00    +0.000 NA
ATOM     22  C   UNL     1      43.631   5.304  10.789  0.00  0.00    +0.000 A 
BRANCH  20  23
ATOM     23  C   UNL     1      44.542   2.057   9.273  0.00  0.00    +0.000 C 
BRANCH  23  24
ATOM     24  C   UNL     1      45.636   2.182   8.233  0.00  0.00    +0.000 A 
ATOM     25  C   UNL     1      45.817   3.386   7.535  0.00  0.00    +0.000 A 
ATOM     26  C   UNL     1      46.798   3.499   6.549  0.00  0.00    +0.000 A 
ATOM     27  C   UNL     1      47.623   2.415   6.261  0.00  0.00    +0.000 A 
ATOM     28  C   UNL     1      47.478   1.224   6.971  0.00  0.00    +0.000 A 
ATOM     29  C   UNL     1      46.491   1.106   7.952  0.00  0.00    +0.000 A 
ENDBRANCH  23  24
ENDBRANCH  20  23
ENDBRANCH  16  17
ENDBRANCH   3  16
TORSDOF 5
ENDMDL
MODEL 6
REMARK VINA RESULT:    -7.839      2.241      2.989
REMARK INTER + INTRA:         -10.677
REMARK INTER:                  -9.838
REMARK INTRA:                  -0.840
REMARK UNBOUND:                -0.547
REMARK  Name = 
REMARK  5 active torsions:
REMARK  status: ('A' for Active; 'I' for Inactive)
REMARK    1  A    between atoms: C_2  and  C_18
REMARK    2  A    between atoms: N_3  and  C_4
REMARK    3  A    between atoms: C_4  and  C_5
REMARK    4  A    between atoms: C_8  and  C_9
REMARK    5  A    between atoms: C_9  and  C_10
REMARK                            x       y       z     vdW  Elec       q    Type
REMARK                         _______ _______ _______ _____ _____    ______ ____
ROOT
ATOM      1  O   UNL     1      46.932   8.062  13.919  0.00  0.00    +0.000 OA
ATOM      2  C   UNL     1      47.814   7.211  14.003  0.00  0.00    +0.000 C 
ATOM      3  N   UNL     1      47.544   5.866  13.989  0.00  0.00    +0.000 N 
ATOM      4  H   UNL     1      48.282   5.215  14.229  0.00  0.00    +0.000 HD
ENDROOT
BRANCH   2   5
ATOM      5  C   UNL     1      49.236   7.575  14.055  0.00  0.00    +0.000 A 
ATOM      6  C   UNL     1      49.799   8.352  13.054  0.00  0.00    +0.000 A 
ATOM      7  S   UNL     1      51.467   8.642  13.274  0.00  0.00    +0.000 S 
ATOM      8  C   UNL     1      51.486   7.776  14.743  0.00  0.00    +0.000 A 
ATOM      9  N   UNL     1      52.619   7.647  15.474  0.00  0.00    +0.000 NA
ATOM     10  C   UNL     1      52.473   6.999  16.580  0.00  0.00    +0.000 A 
ATOM     11  N   UNL     1      51.293   6.463  17.022  0.00  0.00    +0.000 N 
ATOM     12  C   UNL     1      50.138   6.499  16.279  0.00  0.00    +0.000 A 
ATOM     13  O   UNL     1      49.141   5.882  16.634  0.00  0.00    +0.000 OA
ATOM     14  C   UNL     1      50.238   7.254  15.046  0.00  0.00    +0.000 A 
ATOM     15  H   UNL     1      51.249   5.936  17.884  0.00  0.00    +0.000 HD
ENDBRANCH   2   5
BRANCH   3  16
ATOM     16  C   UNL     1      46.209   5.331  13.953  0.00  0.00    +0.000 C 
BRANCH  16  17
ATOM     17  C   UNL     1      45.783   4.950  12.567  0.00  0.00    +0.000 A 
ATOM     18  C   UNL     1      45.879   5.838  11.492  0.00  0.00    +0.000 A 
ATOM     19  C   UNL     1      45.455   5.444  10.223  0.00  0.00    +0.000 A 
ATOM     20  C   UNL     1      44.952   4.156  10.049  0.00  0.00    +0.000 A 
ATOM     21  N   UNL     1      44.855   3.276  11.077  0.00  0.00    +0.000 NA
ATOM     22  C   UNL     1      45.277   3.684  12.297  0.00  0.00    +0.000 A 
BRANCH  20  23
ATOM     23  C   UNL     1      44.530   3.669   8.677  0.00  0.00    +0.000 C 
BRANCH  23  24
ATOM     24  C   UNL     1      45.609   2.902   7.940  0.00  0.00    +0.000 A 
ATOM     25  C   UNL     1      46.287   3.490   6.862  0.00  0.00    +0.000 A 
ATOM     26  C   UNL     1      47.257   2.779   6.154  0.00  0.00    +0.000 A 
ATOM     27  C   UNL     1      47.574   1.475   6.527  0.00  0.00    +0.000 A 
ATOM     28  C   UNL     1      46.934   0.890   7.619  0.00  0.00    +0.000 A 
ATOM     29  C   UNL     1      45.957   1.598   8.323  0.00  0.00    +0.000 A 
ENDBRANCH  23  24
ENDBRANCH  20  23
ENDBRANCH  16  17
ENDBRANCH   3  16
TORSDOF 5
ENDMDL
MODEL 7
REMARK VINA RESULT:    -7.696      2.440      3.214
REMARK INTER + INTRA:         -10.492
REMARK INTER:                  -9.526
REMARK INTRA:                  -0.967
REMARK UNBOUND:                -0.547
REMARK  Name = 
REMARK  5 active torsions:
REMARK  status: ('A' for Active; 'I' for Inactive)
REMARK    1  A    between atoms: C_2  and  C_18
REMARK    2  A    between atoms: N_3  and  C_4
REMARK    3  A    between atoms: C_4  and  C_5
REMARK    4  A    between atoms: C_8  and  C_9
REMARK    5  A    between atoms: C_9  and  C_10
REMARK                            x       y       z     vdW  Elec       q    Type
REMARK                         _______ _______ _______ _____ _____    ______ ____
ROOT
ATOM      1  O   UNL     1      50.192   6.580  15.513  0.00  0.00    +0.000 OA
ATOM      2  C   UNL     1      49.070   6.589  16.013  0.00  0.00    +0.000 C 
ATOM      3  N   UNL     1      47.951   6.944  15.305  0.00  0.00    +0.000 N 
ATOM      4  H   UNL     1      47.082   7.097  15.804  0.00  0.00    +0.000 HD
ENDROOT
BRANCH   2   5
ATOM      5  C   UNL     1      48.837   6.149  17.395  0.00  0.00    +0.000 A 
ATOM      6  C   UNL     1      49.127   4.848  17.776  0.00  0.00    +0.000 A 
ATOM      7  S   UNL     1      48.760   4.519  19.411  0.00  0.00    +0.000 S 
ATOM      8  C   UNL     1      48.242   6.121  19.680  0.00  0.00    +0.000 A 
ATOM      9  N   UNL     1      47.805   6.530  20.896  0.00  0.00    +0.000 NA
ATOM     10  C   UNL     1      47.483   7.778  20.959  0.00  0.00    +0.000 A 
ATOM     11  N   UNL     1      47.556   8.657  19.912  0.00  0.00    +0.000 N 
ATOM     12  C   UNL     1      47.914   8.272  18.643  0.00  0.00    +0.000 A 
ATOM     13  O   UNL     1      47.825   9.049  17.699  0.00  0.00    +0.000 OA
ATOM     14  C   UNL     1      48.328   6.888  18.528  0.00  0.00    +0.000 A 
ATOM     15  H   UNL     1      47.257   9.618  20.016  0.00  0.00    +0.000 HD
ENDBRANCH   2   5
BRANCH   3  16
ATOM     16  C   UNL     1      47.995   7.410  13.945  0.00  0.00    +0.000 C 
BRANCH  16  17
ATOM     17  C   UNL     1      47.034   6.677  13.057  0.00  0.00    +0.000 A 
ATOM     18  C   UNL     1      46.297   7.328  12.065  0.00  0.00    +0.000 A 
ATOM     19  C   UNL     1      45.403   6.606  11.274  0.00  0.00    +0.000 A 
ATOM     20  C   UNL     1      45.272   5.235  11.484  0.00  0.00    +0.000 A 
ATOM     21  N   UNL     1      45.982   4.581  12.438  0.00  0.00    +0.000 NA
ATOM     22  C   UNL     1      46.844   5.306  13.189  0.00  0.00    +0.000 A 
BRANCH  20  23
ATOM     23  C   UNL     1      44.353   4.403  10.612  0.00  0.00    +0.000 C 
BRANCH  23  24
ATOM     24  C   UNL     1      45.065   3.668   9.495  0.00  0.00    +0.000 A 
ATOM     25  C   UNL     1      45.065   2.265   9.457  0.00  0.00    +0.000 A 
ATOM     26  C   UNL     1      45.749   1.578   8.453  0.00  0.00    +0.000 A 
ATOM     27  C   UNL     1      46.427   2.286   7.463  0.00  0.00    +0.000 A 
ATOM     28  C   UNL     1      46.406   3.680   7.468  0.00  0.00    +0.000 A 
ATOM     29  C   UNL     1      45.728   4.368   8.478  0.00  0.00    +0.000 A 
ENDBRANCH  23  24
ENDBRANCH  20  23
ENDBRANCH  16  17
ENDBRANCH   3  16
TORSDOF 5
ENDMDL
MODEL 8
REMARK VINA RESULT:    -7.687      2.623      4.083
REMARK INTER + INTRA:         -10.481
REMARK INTER:                  -9.537
REMARK INTRA:                  -0.944
REMARK UNBOUND:                -0.547
REMARK  Name = 
REMARK  5 active torsions:
REMARK  status: ('A' for Active; 'I' for Inactive)
REMARK    1  A    between atoms: C_2  and  C_18
REMARK    2  A    between atoms: N_3  and  C_4
REMARK    3  A    between atoms: C_4  and  C_5
REMARK    4  A    between atoms: C_8  and  C_9
REMARK    5  A    between atoms: C_9  and  C_10
REMARK                            x       y       z     vdW  Elec       q    Type
REMARK                         _______ _______ _______ _____ _____    ______ ____
ROOT
ATOM      1  O   UNL     1      47.345   8.252  14.291  0.00  0.00    +0.000 OA
ATOM      2  C   UNL     1      48.201   7.379  14.176  0.00  0.00    +0.000 C 
ATOM      3  N   UNL     1      47.885   6.054  14.013  0.00  0.00    +0.000 N 
ATOM      4  H   UNL     1      48.620   5.360  14.093  0.00  0.00    +0.000 HD
ENDROOT
BRANCH   2   5
ATOM      5  C   UNL     1      49.633   7.702  14.132  0.00  0.00    +0.000 A 
ATOM      6  C   UNL     1      50.375   7.761  15.302  0.00  0.00    +0.000 A 
ATOM      7  S   UNL     1      52.011   8.180  15.050  0.00  0.00    +0.000 S 
ATOM      8  C   UNL     1      51.795   8.252  13.360  0.00  0.00    +0.000 A 
ATOM      9  N   UNL     1      52.823   8.548  12.528  0.00  0.00    +0.000 NA
ATOM     10  C   UNL     1      52.520   8.528  11.274  0.00  0.00    +0.000 A 
ATOM     11  N   UNL     1      51.277   8.240  10.775  0.00  0.00    +0.000 N 
ATOM     12  C   UNL     1      50.188   8.013  11.581  0.00  0.00    +0.000 A 
ATOM     13  O   UNL     1      49.064   7.907  11.106  0.00  0.00    +0.000 OA
ATOM     14  C   UNL     1      50.485   7.982  12.999  0.00  0.00    +0.000 A 
ATOM     15  H   UNL     1      51.094   8.272   9.780  0.00  0.00    +0.000 HD
ENDBRANCH   2   5
BRANCH   3  16
ATOM     16  C   UNL     1      46.535   5.557  14.041  0.00  0.00    +0.000 C 
BRANCH  16  17
ATOM     17  C   UNL     1      46.041   5.169  12.680  0.00  0.00    +0.000 A 
ATOM     18  C   UNL     1      46.198   6.003  11.570  0.00  0.00    +0.000 A 
ATOM     19  C   UNL     1      45.707   5.608  10.326  0.00  0.00    +0.000 A 
ATOM     20  C   UNL     1      45.074   4.371  10.212  0.00  0.00    +0.000 A 
ATOM     21  N   UNL     1      44.915   3.544  11.276  0.00  0.00    +0.000 NA
ATOM     22  C   UNL     1      45.404   3.952  12.470  0.00  0.00    +0.000 A 
BRANCH  20  23
ATOM     23  C   UNL     1      44.574   3.878   8.869  0.00  0.00    +0.000 C 
BRANCH  23  24
ATOM     24  C   UNL     1      45.581   3.039   8.109  0.00  0.00    +0.000 A 
ATOM     25  C   UNL     1      46.313   3.596   7.050  0.00  0.00    +0.000 A 
ATOM     26  C   UNL     1      47.216   2.822   6.320  0.00  0.00    +0.000 A 
ATOM     27  C   UNL     1      47.412   1.484   6.653  0.00  0.00    +0.000 A 
ATOM     28  C   UNL     1      46.719   0.926   7.726  0.00  0.00    +0.000 A 
ATOM     29  C   UNL     1      45.808   1.699   8.452  0.00  0.00    +0.000 A 
ENDBRANCH  23  24
ENDBRANCH  20  23
ENDBRANCH  16  17
ENDBRANCH   3  16
TORSDOF 5
ENDMDL
MODEL 9
REMARK VINA RESULT:    -7.652      2.250      3.750
REMARK INTER + INTRA:         -10.436
REMARK INTER:                  -9.734
REMARK INTRA:                  -0.702
REMARK UNBOUND:                -0.547
REMARK  Name = 
REMARK  5 active torsions:
REMARK  status: ('A' for Active; 'I' for Inactive)
REMARK    1  A    between atoms: C_2  and  C_18
REMARK    2  A    between atoms: N_3  and  C_4
REMARK    3  A    between atoms: C_4  and  C_5
REMARK    4  A    between atoms: C_8  and  C_9
REMARK    5  A    between atoms: C_9  and  C_10
REMARK                            x       y       z     vdW  Elec       q    Type
REMARK                         _______ _______ _______ _____ _____    ______ ____
ROOT
ATOM      1  O   UNL     1      48.244   5.706  16.332  0.00  0.00    +0.000 OA
ATOM      2  C   UNL     1      48.318   6.309  15.265  0.00  0.00    +0.000 C 
ATOM      3  N   UNL     1      47.459   6.071  14.223  0.00  0.00    +0.000 N 
ATOM      4  H   UNL     1      47.666   6.469  13.314  0.00  0.00    +0.000 HD
ENDROOT
BRANCH   2   5
ATOM      5  C   UNL     1      49.295   7.385  15.051  0.00  0.00    +0.000 A 
ATOM      6  C   UNL     1      50.616   7.221  15.439  0.00  0.00    +0.000 A 
ATOM      7  S   UNL     1      51.589   8.591  15.136  0.00  0.00    +0.000 S 
ATOM      8  C   UNL     1      50.287   9.436  14.432  0.00  0.00    +0.000 A 
ATOM      9  N   UNL     1      50.440  10.689  13.938  0.00  0.00    +0.000 NA
ATOM     10  C   UNL     1      49.378  11.187  13.401  0.00  0.00    +0.000 A 
ATOM     11  N   UNL     1      48.171  10.546  13.316  0.00  0.00    +0.000 N 
ATOM     12  C   UNL     1      47.946   9.311  13.873  0.00  0.00    +0.000 A 
ATOM     13  O   UNL     1      46.819   8.832  13.911  0.00  0.00    +0.000 OA
ATOM     14  C   UNL     1      49.120   8.688  14.451  0.00  0.00    +0.000 A 
ATOM     15  H   UNL     1      47.364  11.004  12.912  0.00  0.00    +0.000 HD
ENDBRANCH   2   5
BRANCH   3  16
ATOM     16  C   UNL     1      46.448   5.047  14.253  0.00  0.00    +0.000 C 
BRANCH  16  17
ATOM     17  C   UNL     1      45.957   4.687  12.883  0.00  0.00    +0.000 A 
ATOM     18  C   UNL     1      45.388   3.442  12.604  0.00  0.00    +0.000 A 
ATOM     19  C   UNL     1      44.960   3.147  11.309  0.00  0.00    +0.000 A 
ATOM     20  C   UNL     1      45.099   4.113  10.315  0.00  0.00    +0.000 A 
ATOM     21  N   UNL     1      45.644   5.330  10.565  0.00  0.00    +0.000 NA
ATOM     22  C   UNL     1      46.048   5.591  11.831  0.00  0.00    +0.000 A 
BRANCH  20  23
ATOM     23  C   UNL     1      44.598   3.854   8.908  0.00  0.00    +0.000 C 
BRANCH  23  24
ATOM     24  C   UNL     1      45.548   3.034   8.060  0.00  0.00    +0.000 A 
ATOM     25  C   UNL     1      46.131   3.588   6.910  0.00  0.00    +0.000 A 
ATOM     26  C   UNL     1      46.979   2.829   6.102  0.00  0.00    +0.000 A 
ATOM     27  C   UNL     1      47.270   1.511   6.444  0.00  0.00    +0.000 A 
ATOM     28  C   UNL     1      46.726   0.958   7.603  0.00  0.00    +0.000 A 
ATOM     29  C   UNL     1      45.870   1.714   8.408  0.00  0.00    +0.000 A 
ENDBRANCH  23  24
ENDBRANCH  20  23
ENDBRANCH  16  17
ENDBRANCH   3  16
TORSDOF 5
ENDMDL
