MODEL 1
REMARK VINA RESULT:    -8.343      0.000      0.000
REMARK INTER + INTRA:         -12.173
REMARK INTER:                 -11.269
REMARK INTRA:                  -0.905
REMARK UNBOUND:                -0.905
REMARK  Name = 
REMARK  6 active torsions:
REMARK  status: ('A' for Active; 'I' for Inactive)
REMARK    1  A    between atoms: C_2  and  C_20
REMARK    2  A    between atoms: N_3  and  C_4
REMARK    3  A    between atoms: C_4  and  C_5
REMARK    4  A    between atoms: C_8  and  C_9
REMARK    5  A    between atoms: C_9  and  C_10
REMARK    6  A    between atoms: C_10  and  N_11
REMARK                            x       y       z     vdW  Elec       q    Type
REMARK                         _______ _______ _______ _____ _____    ______ ____
ROOT
ATOM      1  C   UNL     1      46.804   7.894  12.932  0.00  0.00    +0.000 C 
ENDROOT
BRANCH   1   2
ATOM      2  C   UNL     1      46.117   6.667  12.395  0.00  0.00    +0.000 A 
ATOM      3  C   UNL     1      45.513   5.776  13.283  0.00  0.00    +0.000 A 
ATOM      4  C   UNL     1      44.856   4.638  12.812  0.00  0.00    +0.000 A 
ATOM      5  C   UNL     1      44.792   4.352  11.441  0.00  0.00    +0.000 A 
ATOM      6  C   UNL     1      45.424   5.235  10.554  0.00  0.00    +0.000 A 
ATOM      7  C   UNL     1      46.087   6.377  11.025  0.00  0.00    +0.000 A 
BRANCH   5   8
ATOM      8  C   UNL     1      44.071   3.135  10.886  0.00  0.00    +0.000 C 
BRANCH   8   9
ATOM      9  C   UNL     1      44.308   2.877   9.393  0.00  0.00    +0.000 C 
BRANCH   9  10
ATOM     10  N   UNL     1      45.231   1.762   9.158  0.00  0.00    +0.000 N 
ATOM     11  C   UNL     1      46.051   1.999   8.028  0.00  0.00    +0.000 A 
ATOM     12  C   UNL     1      47.002   1.050   7.640  0.00  0.00    +0.000 A 
ATOM     13  N   UNL     1      47.825   1.197   6.569  0.00  0.00    +0.000 NA
ATOM     14  C   UNL     1      47.675   2.356   5.892  0.00  0.00    +0.000 A 
ATOM     15  C   UNL     1      46.753   3.311   6.266  0.00  0.00    +0.000 A 
ATOM     16  N   UNL     1      45.935   3.152   7.332  0.00  0.00    +0.000 NA
ATOM     17  H   UNL     1      44.742   0.881   9.020  0.00  0.00    +0.000 HD
ENDBRANCH   9  10
ENDBRANCH   8   9
ENDBRANCH   5   8
ENDBRANCH   1   2
BRANCH   1  20
ATOM     18  O   UNL     1      49.201   6.522  13.570  0.00  0.00    +0.000 OA
ATOM     19  C   UNL     1      48.545   7.040  14.466  0.00  0.00    +0.000 C 
ATOM     20  N   UNL     1      47.344   7.667  14.244  0.00  0.00    +0.000 N 
ATOM     21  H   UNL     1      46.954   8.244  14.980  0.00  0.00    +0.000 HD
BRANCH  19  22
ATOM     22  C   UNL     1      48.965   6.964  15.872  0.00  0.00    +0.000 A 
ATOM     23  C   UNL     1      49.602   8.044  16.468  0.00  0.00    +0.000 A 
ATOM     24  S   UNL     1      50.062   7.755  18.086  0.00  0.00    +0.000 S 
ATOM     25  C   UNL     1      49.378   6.197  18.061  0.00  0.00    +0.000 A 
ATOM     26  N   UNL     1      49.411   5.398  19.162  0.00  0.00    +0.000 NA
ATOM     27  C   UNL     1      48.815   4.262  19.015  0.00  0.00    +0.000 A 
ATOM     28  N   UNL     1      48.193   3.849  17.867  0.00  0.00    +0.000 N 
ATOM     29  C   UNL     1      48.203   4.587  16.710  0.00  0.00    +0.000 A 
ATOM     30  O   UNL     1      47.754   4.128  15.664  0.00  0.00    +0.000 OA
ATOM     31  C   UNL     1      48.824   5.894  16.831  0.00  0.00    +0.000 A 
ATOM     32  H   UNL     1      47.768   2.936  17.805  0.00  0.00    +0.000 HD
ENDBRANCH  19  22
ENDBRANCH   1  20
TORSDOF 6
ENDMDL
MODEL 2
REMARK VINA RESULT:    -7.916      1.766      2.236
REMARK INTER + INTRA:         -11.597
REMARK INTER:                 -10.654
REMARK INTRA:                  -0.943
REMARK UNBOUND:                -0.905
REMARK  Name = 
REMARK  6 active torsions:
REMARK  status: ('A' for Active; 'I' for Inactive)
REMARK    1  A    between atoms: C_2  and  C_20
REMARK    2  A    between atoms: N_3  and  C_4
REMARK    3  A    between atoms: C_4  and  C_5
REMARK    4  A    between atoms: C_8  and  C_9
REMARK    5  A    between atoms: C_9  and  C_10
REMARK    6  A    between atoms: C_10  and  N_11
REMARK                            x       y       z     vdW  Elec       q    Type
REMARK                         _______ _______ _______ _____ _____    ______ ____
ROOT
ATOM      1  C   UNL     1      47.719   7.139  13.563  0.00  0.00    +0.000 C 
ENDROOT
BRANCH   1   2
ATOM      2  C   UNL     1      46.788   6.160  12.899  0.00  0.00    +0.000 A 
ATOM      3  C   UNL     1      46.390   5.015  13.591  0.00  0.00    +0.000 A 
ATOM      4  C   UNL     1      45.516   4.099  13.006  0.00  0.00    +0.000 A 
ATOM      5  C   UNL     1      45.022   4.292  11.708  0.00  0.00    +0.000 A 
ATOM      6  C   UNL     1      45.447   5.430  11.005  0.00  0.00    +0.000 A 
ATOM      7  C   UNL     1      46.328   6.350  11.590  0.00  0.00    +0.000 A 
BRANCH   5   8
ATOM      8  C   UNL     1      44.055   3.329  11.041  0.00  0.00    +0.000 C 
BRANCH   8   9
ATOM      9  C   UNL     1      44.313   3.094   9.548  0.00  0.00    +0.000 C 
BRANCH   9  10
ATOM     10  N   UNL     1      45.141   1.908   9.304  0.00  0.00    +0.000 N 
ATOM     11  C   UNL     1      45.968   2.079   8.167  0.00  0.00    +0.000 A 
ATOM     12  C   UNL     1      46.834   1.057   7.770  0.00  0.00    +0.000 A 
ATOM     13  N   UNL     1      47.657   1.138   6.692  0.00  0.00    +0.000 NA
ATOM     14  C   UNL     1      47.596   2.307   6.017  0.00  0.00    +0.000 A 
ATOM     15  C   UNL     1      46.758   3.332   6.400  0.00  0.00    +0.000 A 
ATOM     16  N   UNL     1      45.939   3.239   7.473  0.00  0.00    +0.000 NA
ATOM     17  H   UNL     1      44.581   1.070   9.170  0.00  0.00    +0.000 HD
ENDBRANCH   9  10
ENDBRANCH   8   9
ENDBRANCH   5   8
ENDBRANCH   1   2
BRANCH   1  20
ATOM     18  O   UNL     1      50.166   6.880  14.971  0.00  0.00    +0.000 OA
ATOM     19  C   UNL     1      49.106   6.796  15.581  0.00  0.00    +0.000 C 
ATOM     20  N   UNL     1      47.883   6.849  14.962  0.00  0.00    +0.000 N 
ATOM     21  H   UNL     1      47.054   6.977  15.531  0.00  0.00    +0.000 HD
BRANCH  19  22
ATOM     22  C   UNL     1      49.068   6.557  17.030  0.00  0.00    +0.000 A 
ATOM     23  C   UNL     1      49.544   5.362  17.552  0.00  0.00    +0.000 A 
ATOM     24  S   UNL     1      49.371   5.241  19.246  0.00  0.00    +0.000 S 
ATOM     25  C   UNL     1      48.701   6.802  19.345  0.00  0.00    +0.000 A 
ATOM     26  N   UNL     1      48.336   7.335  20.542  0.00  0.00    +0.000 NA
ATOM     27  C   UNL     1      47.886   8.543  20.475  0.00  0.00    +0.000 A 
ATOM     28  N   UNL     1      47.762   9.266  19.318  0.00  0.00    +0.000 N 
ATOM     29  C   UNL     1      48.043   8.743  18.081  0.00  0.00    +0.000 A 
ATOM     30  O   UNL     1      47.792   9.372  17.058  0.00  0.00    +0.000 OA
ATOM     31  C   UNL     1      48.594   7.400  18.103  0.00  0.00    +0.000 A 
ATOM     32  H   UNL     1      47.376  10.199  19.327  0.00  0.00    +0.000 HD
ENDBRANCH  19  22
ENDBRANCH   1  20
TORSDOF 6
ENDMDL
MODEL 3
REMARK VINA RESULT:    -7.632      3.240      5.143
REMARK INTER + INTRA:         -11.214
REMARK INTER:                 -10.554
REMARK INTRA:                  -0.660
REMARK UNBOUND:                -0.905
REMARK  Name = 
REMARK  6 active torsions:
REMARK  status: ('A' for Active; 'I' for Inactive)
REMARK    1  A    between atoms: C_2  and  C_20
REMARK    2  A    between atoms: N_3  and  C_4
REMARK    3  A    between atoms: C_4  and  C_5
REMARK    4  A    between atoms: C_8  and  C_9
REMARK    5  A    between atoms: C_9  and  C_10
REMARK    6  A    between atoms: C_10  and  N_11
REMARK                            x       y       z     vdW  Elec       q    Type
REMARK                         _______ _______ _______ _____ _____    ______ ____
ROOT
ATOM      1  C   UNL     1      47.738   6.598  13.636  0.00  0.00    +0.000 C 
ENDROOT
BRANCH   1   2
ATOM      2  C   UNL     1      46.797   5.669  12.916  0.00  0.00    +0.000 A 
ATOM      3  C   UNL     1      46.558   4.396  13.436  0.00  0.00    +0.000 A 
ATOM      4  C   UNL     1      45.679   3.520  12.799  0.00  0.00    +0.000 A 
ATOM      5  C   UNL     1      45.021   3.885  11.616  0.00  0.00    +0.000 A 
ATOM      6  C   UNL     1      45.285   5.155  11.080  0.00  0.00    +0.000 A 
ATOM      7  C   UNL     1      46.170   6.035  11.718  0.00  0.00    +0.000 A 
BRANCH   5   8
ATOM      8  C   UNL     1      44.042   2.970  10.900  0.00  0.00    +0.000 C 
BRANCH   8   9
ATOM      9  C   UNL     1      44.313   2.790   9.401  0.00  0.00    +0.000 C 
BRANCH   9  10
ATOM     10  N   UNL     1      45.231   1.680   9.128  0.00  0.00    +0.000 N 
ATOM     11  C   UNL     1      46.064   1.960   8.017  0.00  0.00    +0.000 A 
ATOM     12  C   UNL     1      47.012   1.022   7.598  0.00  0.00    +0.000 A 
ATOM     13  N   UNL     1      47.847   1.208   6.542  0.00  0.00    +0.000 NA
ATOM     14  C   UNL     1      47.711   2.397   5.913  0.00  0.00    +0.000 A 
ATOM     15  C   UNL     1      46.790   3.340   6.319  0.00  0.00    +0.000 A 
ATOM     16  N   UNL     1      45.961   3.142   7.369  0.00  0.00    +0.000 NA
ATOM     17  H   UNL     1      44.739   0.809   8.949  0.00  0.00    +0.000 HD
ENDBRANCH   9  10
ENDBRANCH   8   9
ENDBRANCH   5   8
ENDBRANCH   1   2
BRANCH   1  20
ATOM     18  O   UNL     1      48.912   8.182  11.599  0.00  0.00    +0.000 OA
ATOM     19  C   UNL     1      48.024   8.656  12.297  0.00  0.00    +0.000 C 
ATOM     20  N   UNL     1      47.451   7.975  13.341  0.00  0.00    +0.000 N 
ATOM     21  H   UNL     1      46.594   8.336  13.746  0.00  0.00    +0.000 HD
BRANCH  19  22
ATOM     22  C   UNL     1      47.552  10.035  12.111  0.00  0.00    +0.000 A 
ATOM     23  C   UNL     1      48.453  11.091  12.143  0.00  0.00    +0.000 A 
ATOM     24  S   UNL     1      47.717  12.620  11.961  0.00  0.00    +0.000 S 
ATOM     25  C   UNL     1      46.177  11.920  11.779  0.00  0.00    +0.000 A 
ATOM     26  N   UNL     1      45.076  12.691  11.568  0.00  0.00    +0.000 NA
ATOM     27  C   UNL     1      43.982  12.025  11.402  0.00  0.00    +0.000 A 
ATOM     28  N   UNL     1      43.887  10.659  11.435  0.00  0.00    +0.000 N 
ATOM     29  C   UNL     1      44.954   9.846  11.722  0.00  0.00    +0.000 A 
ATOM     30  O   UNL     1      44.805   8.638  11.876  0.00  0.00    +0.000 OA
ATOM     31  C   UNL     1      46.220  10.541  11.875  0.00  0.00    +0.000 A 
ATOM     32  H   UNL     1      42.995  10.197  11.326  0.00  0.00    +0.000 HD
ENDBRANCH  19  22
ENDBRANCH   1  20
TORSDOF 6
ENDMDL
MODEL 4
REMARK VINA RESULT:    -7.434      2.894      8.509
REMARK INTER + INTRA:         -10.947
REMARK INTER:                  -9.628
REMARK INTRA:                  -1.318
REMARK UNBOUND:                -0.905
REMARK  Name = 
REMARK  6 active torsions:
REMARK  status: ('A' for Active; 'I' for Inactive)
REMARK    1  A    between atoms: C_2  and  C_20
REMARK    2  A    between atoms: N_3  and  C_4
REMARK    3  A    between atoms: C_4  and  C_5
REMARK    4  A    between atoms: C_8  and  C_9
REMARK    5  A    between atoms: C_9  and  C_10
REMARK    6  A    between atoms: C_10  and  N_11
REMARK                            x       y       z     vdW  Elec       q    Type
REMARK                         _______ _______ _______ _____ _____    ______ ____
ROOT
ATOM      1  C   UNL     1      47.739   7.723  11.785  0.00  0.00    +0.000 C 
ENDROOT
BRANCH   1   2
ATOM      2  C   UNL     1      48.244   7.907  13.191  0.00  0.00    +0.000 A 
ATOM      3  C   UNL     1      47.696   8.911  13.991  0.00  0.00    +0.000 A 
ATOM      4  C   UNL     1      48.134   9.094  15.303  0.00  0.00    +0.000 A 
ATOM      5  C   UNL     1      49.143   8.288  15.851  0.00  0.00    +0.000 A 
ATOM      6  C   UNL     1      49.712   7.299  15.034  0.00  0.00    +0.000 A 
ATOM      7  C   UNL     1      49.274   7.116  13.716  0.00  0.00    +0.000 A 
BRANCH   5   8
ATOM      8  C   UNL     1      49.636   8.442  17.280  0.00  0.00    +0.000 C 
BRANCH   8   9
ATOM      9  C   UNL     1      49.499   7.182  18.143  0.00  0.00    +0.000 C 
BRANCH   9  10
ATOM     10  N   UNL     1      48.146   6.617  18.096  0.00  0.00    +0.000 N 
ATOM     11  C   UNL     1      48.171   5.243  17.753  0.00  0.00    +0.000 A 
ATOM     12  C   UNL     1      46.977   4.523  17.658  0.00  0.00    +0.000 A 
ATOM     13  N   UNL     1      46.912   3.205  17.332  0.00  0.00    +0.000 NA
ATOM     14  C   UNL     1      48.107   2.613  17.115  0.00  0.00    +0.000 A 
ATOM     15  C   UNL     1      49.296   3.304  17.216  0.00  0.00    +0.000 A 
ATOM     16  N   UNL     1      49.349   4.617  17.537  0.00  0.00    +0.000 NA
ATOM     17  H   UNL     1      47.550   7.103  17.431  0.00  0.00    +0.000 HD
ENDBRANCH   9  10
ENDBRANCH   8   9
ENDBRANCH   5   8
ENDBRANCH   1   2
BRANCH   1  20
ATOM     18  O   UNL     1      44.921   7.513  12.013  0.00  0.00    +0.000 OA
ATOM     19  C   UNL     1      45.579   6.520  11.727  0.00  0.00    +0.000 C 
ATOM     20  N   UNL     1      46.950   6.528  11.659  0.00  0.00    +0.000 N 
ATOM     21  H   UNL     1      47.420   5.742  11.225  0.00  0.00    +0.000 HD
BRANCH  19  22
ATOM     22  C   UNL     1      44.946   5.213  11.502  0.00  0.00    +0.000 A 
ATOM     23  C   UNL     1      44.203   4.617  12.512  0.00  0.00    +0.000 A 
ATOM     24  S   UNL     1      43.588   3.081  12.089  0.00  0.00    +0.000 S 
ATOM     25  C   UNL     1      44.250   3.185  10.525  0.00  0.00    +0.000 A 
ATOM     26  N   UNL     1      44.075   2.184   9.621  0.00  0.00    +0.000 NA
ATOM     27  C   UNL     1      44.591   2.416   8.460  0.00  0.00    +0.000 A 
ATOM     28  N   UNL     1      45.273   3.555   8.123  0.00  0.00    +0.000 N 
ATOM     29  C   UNL     1      45.541   4.555   9.023  0.00  0.00    +0.000 A 
ATOM     30  O   UNL     1      46.268   5.497   8.724  0.00  0.00    +0.000 OA
ATOM     31  C   UNL     1      44.946   4.365  10.334  0.00  0.00    +0.000 A 
ATOM     32  H   UNL     1      45.678   3.665   7.205  0.00  0.00    +0.000 HD
ENDBRANCH  19  22
ENDBRANCH   1  20
TORSDOF 6
ENDMDL
MODEL 5
REMARK VINA RESULT:    -7.344      1.990      3.251
REMARK INTER + INTRA:         -10.824
REMARK INTER:                  -9.764
REMARK INTRA:                  -1.060
REMARK UNBOUND:                -0.905
REMARK  Name = 
REMARK  6 active torsions:
REMARK  status: ('A' for Active; 'I' for Inactive)
REMARK    1  A    between atoms: C_2  and  C_20
REMARK    2  A    between atoms: N_3  and  C_4
REMARK    3  A    between atoms: C_4  and  C_5
REMARK    4  A    between atoms: C_8  and  C_9
REMARK    5  A    between atoms: C_9  and  C_10
REMARK    6  A    between atoms: C_10  and  N_11
REMARK                            x       y       z     vdW  Elec       q    Type
REMARK                         _______ _______ _______ _____ _____    ______ ____
ROOT
ATOM      1  C   UNL     1      47.629   4.133  15.211  0.00  0.00    +0.000 C 
ENDROOT
BRANCH   1   2
ATOM      2  C   UNL     1      46.717   4.416  14.048  0.00  0.00    +0.000 A 
ATOM      3  C   UNL     1      46.219   3.353  13.292  0.00  0.00    +0.000 A 
ATOM      4  C   UNL     1      45.359   3.584  12.218  0.00  0.00    +0.000 A 
ATOM      5  C   UNL     1      44.979   4.885  11.859  0.00  0.00    +0.000 A 
ATOM      6  C   UNL     1      45.504   5.953  12.604  0.00  0.00    +0.000 A 
ATOM      7  C   UNL     1      46.370   5.723  13.681  0.00  0.00    +0.000 A 
BRANCH   5   8
ATOM      8  C   UNL     1      44.031   5.181  10.710  0.00  0.00    +0.000 C 
BRANCH   8   9
ATOM      9  C   UNL     1      44.070   4.157   9.569  0.00  0.00    +0.000 C 
BRANCH   9  10
ATOM     10  N   UNL     1      45.011   4.535   8.510  0.00  0.00    +0.000 N 
ATOM     11  C   UNL     1      45.764   3.421   8.065  0.00  0.00    +0.000 A 
ATOM     12  C   UNL     1      46.717   3.578   7.054  0.00  0.00    +0.000 A 
ATOM     13  N   UNL     1      47.483   2.564   6.573  0.00  0.00    +0.000 NA
ATOM     14  C   UNL     1      47.250   1.359   7.135  0.00  0.00    +0.000 A 
ATOM     15  C   UNL     1      46.306   1.181   8.124  0.00  0.00    +0.000 A 
ATOM     16  N   UNL     1      45.551   2.198   8.599  0.00  0.00    +0.000 NA
ATOM     17  H   UNL     1      45.657   5.260   8.811  0.00  0.00    +0.000 HD
ENDBRANCH   9  10
ENDBRANCH   8   9
ENDBRANCH   5   8
ENDBRANCH   1   2
BRANCH   1  20
ATOM     18  O   UNL     1      49.734   4.870  16.961  0.00  0.00    +0.000 OA
ATOM     19  C   UNL     1      48.707   5.538  16.937  0.00  0.00    +0.000 C 
ATOM     20  N   UNL     1      47.622   5.209  16.164  0.00  0.00    +0.000 N 
ATOM     21  H   UNL     1      46.891   5.900  16.032  0.00  0.00    +0.000 HD
BRANCH  19  22
ATOM     22  C   UNL     1      48.531   6.714  17.800  0.00  0.00    +0.000 A 
ATOM     23  C   UNL     1      48.485   6.566  19.179  0.00  0.00    +0.000 A 
ATOM     24  S   UNL     1      48.224   8.032  20.013  0.00  0.00    +0.000 S 
ATOM     25  C   UNL     1      48.216   8.922  18.563  0.00  0.00    +0.000 A 
ATOM     26  N   UNL     1      48.051  10.272  18.568  0.00  0.00    +0.000 NA
ATOM     27  C   UNL     1      48.113  10.822  17.402  0.00  0.00    +0.000 A 
ATOM     28  N   UNL     1      48.319  10.145  16.229  0.00  0.00    +0.000 N 
ATOM     29  C   UNL     1      48.412   8.777  16.167  0.00  0.00    +0.000 A 
ATOM     30  O   UNL     1      48.460   8.196  15.088  0.00  0.00    +0.000 OA
ATOM     31  C   UNL     1      48.392   8.110  17.457  0.00  0.00    +0.000 A 
ATOM     32  H   UNL     1      48.329  10.630  15.344  0.00  0.00    +0.000 HD
ENDBRANCH  19  22
ENDBRANCH   1  20
TORSDOF 6
ENDMDL
MODEL 6
REMARK VINA RESULT:    -7.265      4.854      9.261
REMARK INTER + INTRA:         -10.718
REMARK INTER:                  -9.974
REMARK INTRA:                  -0.744
REMARK UNBOUND:                -0.905
REMARK  Name = 
REMARK  6 active torsions:
REMARK  status: ('A' for Active; 'I' for Inactive)
REMARK    1  A    between atoms: C_2  and  C_20
REMARK    2  A    between atoms: N_3  and  C_4
REMARK    3  A    between atoms: C_4  and  C_5
REMARK    4  A    between atoms: C_8  and  C_9
REMARK    5  A    between atoms: C_9  and  C_10
REMARK    6  A    between atoms: C_10  and  N_11
REMARK                            x       y       z     vdW  Elec       q    Type
REMARK                         _______ _______ _______ _____ _____    ______ ____
ROOT
ATOM      1  C   UNL     1      47.237   3.428  16.866  0.00  0.00    +0.000 C 
ENDROOT
BRANCH   1   2
ATOM      2  C   UNL     1      48.707   3.427  17.189  0.00  0.00    +0.000 A 
ATOM      3  C   UNL     1      49.442   2.251  17.031  0.00  0.00    +0.000 A 
ATOM      4  C   UNL     1      50.809   2.224  17.308  0.00  0.00    +0.000 A 
ATOM      5  C   UNL     1      51.480   3.368  17.763  0.00  0.00    +0.000 A 
ATOM      6  C   UNL     1      50.732   4.541  17.948  0.00  0.00    +0.000 A 
ATOM      7  C   UNL     1      49.358   4.568  17.673  0.00  0.00    +0.000 A 
BRANCH   5   8
ATOM      8  C   UNL     1      52.971   3.387  18.059  0.00  0.00    +0.000 C 
BRANCH   8   9
ATOM      9  C   UNL     1      53.738   2.155  17.563  0.00  0.00    +0.000 C 
BRANCH   9  10
ATOM     10  N   UNL     1      53.867   1.124  18.598  0.00  0.00    +0.000 N 
ATOM     11  C   UNL     1      54.302  -0.108  18.049  0.00  0.00    +0.000 A 
ATOM     12  C   UNL     1      54.488  -1.217  18.878  0.00  0.00    +0.000 A 
ATOM     13  N   UNL     1      54.899  -2.434  18.433  0.00  0.00    +0.000 NA
ATOM     14  C   UNL     1      55.139  -2.503  17.106  0.00  0.00    +0.000 A 
ATOM     15  C   UNL     1      54.974  -1.415  16.273  0.00  0.00    +0.000 A 
ATOM     16  N   UNL     1      54.560  -0.210  16.726  0.00  0.00    +0.000 NA
ATOM     17  H   UNL     1      52.993   0.964  19.092  0.00  0.00    +0.000 HD
ENDBRANCH   9  10
ENDBRANCH   8   9
ENDBRANCH   5   8
ENDBRANCH   1   2
BRANCH   1  20
ATOM     18  O   UNL     1      47.257   3.025  14.060  0.00  0.00    +0.000 OA
ATOM     19  C   UNL     1      46.897   4.105  14.512  0.00  0.00    +0.000 C 
ATOM     20  N   UNL     1      46.919   4.398  15.852  0.00  0.00    +0.000 N 
ATOM     21  H   UNL     1      46.425   5.220  16.179  0.00  0.00    +0.000 HD
BRANCH  19  22
ATOM     22  C   UNL     1      46.479   5.208  13.635  0.00  0.00    +0.000 A 
ATOM     23  C   UNL     1      47.337   6.272  13.396  0.00  0.00    +0.000 A 
ATOM     24  S   UNL     1      46.662   7.481  12.398  0.00  0.00    +0.000 S 
ATOM     25  C   UNL     1      45.220   6.597  12.207  0.00  0.00    +0.000 A 
ATOM     26  N   UNL     1      44.204   7.070  11.437  0.00  0.00    +0.000 NA
ATOM     27  C   UNL     1      43.190   6.276  11.345  0.00  0.00    +0.000 A 
ATOM     28  N   UNL     1      43.097   5.054  11.956  0.00  0.00    +0.000 N 
ATOM     29  C   UNL     1      44.062   4.572  12.803  0.00  0.00    +0.000 A 
ATOM     30  O   UNL     1      43.886   3.537  13.438  0.00  0.00    +0.000 OA
ATOM     31  C   UNL     1      45.246   5.406  12.910  0.00  0.00    +0.000 A 
ATOM     32  H   UNL     1      42.264   4.491  11.868  0.00  0.00    +0.000 HD
ENDBRANCH  19  22
ENDBRANCH   1  20
TORSDOF 6
ENDMDL
MODEL 7
REMARK VINA RESULT:    -7.154      1.941      2.454
REMARK INTER + INTRA:         -10.568
REMARK INTER:                  -9.704
REMARK INTRA:                  -0.864
REMARK UNBOUND:                -0.905
REMARK  Name = 
REMARK  6 active torsions:
REMARK  status: ('A' for Active; 'I' for Inactive)
REMARK    1  A    between atoms: C_2  and  C_20
REMARK    2  A    between atoms: N_3  and  C_4
REMARK    3  A    between atoms: C_4  and  C_5
REMARK    4  A    between atoms: C_8  and  C_9
REMARK    5  A    between atoms: C_9  and  C_10
REMARK    6  A    between atoms: C_10  and  N_11
REMARK                            x       y       z     vdW  Elec       q    Type
REMARK                         _______ _______ _______ _____ _____    ______ ____
ROOT
ATOM      1  C   UNL     1      48.409   6.197  14.387  0.00  0.00    +0.000 C 
ENDROOT
BRANCH   1   2
ATOM      2  C   UNL     1      47.181   5.786  13.621  0.00  0.00    +0.000 A 
ATOM      3  C   UNL     1      46.422   6.759  12.968  0.00  0.00    +0.000 A 
ATOM      4  C   UNL     1      45.287   6.405  12.237  0.00  0.00    +0.000 A 
ATOM      5  C   UNL     1      44.869   5.070  12.147  0.00  0.00    +0.000 A 
ATOM      6  C   UNL     1      45.618   4.098  12.827  0.00  0.00    +0.000 A 
ATOM      7  C   UNL     1      46.756   4.452  13.564  0.00  0.00    +0.000 A 
BRANCH   5   8
ATOM      8  C   UNL     1      43.651   4.639  11.347  0.00  0.00    +0.000 C 
BRANCH   8   9
ATOM      9  C   UNL     1      43.953   3.682  10.187  0.00  0.00    +0.000 C 
BRANCH   9  10
ATOM     10  N   UNL     1      44.715   4.328   9.113  0.00  0.00    +0.000 N 
ATOM     11  C   UNL     1      45.534   3.397   8.429  0.00  0.00    +0.000 A 
ATOM     12  C   UNL     1      46.339   3.820   7.367  0.00  0.00    +0.000 A 
ATOM     13  N   UNL     1      47.155   2.995   6.660  0.00  0.00    +0.000 NA
ATOM     14  C   UNL     1      47.129   1.701   7.048  0.00  0.00    +0.000 A 
ATOM     15  C   UNL     1      46.333   1.262   8.084  0.00  0.00    +0.000 A 
ATOM     16  N   UNL     1      45.527   2.093   8.784  0.00  0.00    +0.000 NA
ATOM     17  H   UNL     1      45.304   5.081   9.459  0.00  0.00    +0.000 HD
ENDBRANCH   9  10
ENDBRANCH   8   9
ENDBRANCH   5   8
ENDBRANCH   1   2
BRANCH   1  20
ATOM     18  O   UNL     1      50.110   7.540  16.215  0.00  0.00    +0.000 OA
ATOM     19  C   UNL     1      48.950   7.303  16.531  0.00  0.00    +0.000 C 
ATOM     20  N   UNL     1      48.086   6.604  15.727  0.00  0.00    +0.000 N 
ATOM     21  H   UNL     1      47.097   6.615  15.950  0.00  0.00    +0.000 HD
BRANCH  19  22
ATOM     22  C   UNL     1      48.414   7.692  17.843  0.00  0.00    +0.000 A 
ATOM     23  C   UNL     1      48.086   9.017  18.096  0.00  0.00    +0.000 A 
ATOM     24  S   UNL     1      47.529   9.289  19.687  0.00  0.00    +0.000 S 
ATOM     25  C   UNL     1      47.657   7.637  20.074  0.00  0.00    +0.000 A 
ATOM     26  N   UNL     1      47.311   7.176  21.306  0.00  0.00    +0.000 NA
ATOM     27  C   UNL     1      47.415   5.896  21.446  0.00  0.00    +0.000 A 
ATOM     28  N   UNL     1      47.839   5.036  20.468  0.00  0.00    +0.000 N 
ATOM     29  C   UNL     1      48.272   5.463  19.238  0.00  0.00    +0.000 A 
ATOM     30  O   UNL     1      48.770   4.680  18.436  0.00  0.00    +0.000 OA
ATOM     31  C   UNL     1      48.136   6.891  19.012  0.00  0.00    +0.000 A 
ATOM     32  H   UNL     1      47.925   4.046  20.648  0.00  0.00    +0.000 HD
ENDBRANCH  19  22
ENDBRANCH   1  20
TORSDOF 6
ENDMDL
MODEL 8
REMARK VINA RESULT:    -7.114      4.068      8.667
REMARK INTER + INTRA:         -10.514
REMARK INTER:                  -9.503
REMARK INTRA:                  -1.012
REMARK UNBOUND:                -0.905
REMARK  Name = 
REMARK  6 active torsions:
REMARK  status: ('A' for Active; 'I' for Inactive)
REMARK    1  A    between atoms: C_2  and  C_20
REMARK    2  A    between atoms: N_3  and  C_4
REMARK    3  A    between atoms: C_4  and  C_5
REMARK    4  A    between atoms: C_8  and  C_9
REMARK    5  A    between atoms: C_9  and  C_10
REMARK    6  A    between atoms: C_10  and  N_11
REMARK                            x       y       z     vdW  Elec       q    Type
REMARK                         _______ _______ _______ _____ _____    ______ ____
ROOT
ATOM      1  C   UNL     1      47.202   3.518  16.821  0.00  0.00    +0.000 C 
ENDROOT
BRANCH   1   2
ATOM      2  C   UNL     1      48.671   3.599  17.141  0.00  0.00    +0.000 A 
ATOM      3  C   UNL     1      49.449   2.441  17.087  0.00  0.00    +0.000 A 
ATOM      4  C   UNL     1      50.816   2.489  17.364  0.00  0.00    +0.000 A 
ATOM      5  C   UNL     1      51.444   3.692  17.715  0.00  0.00    +0.000 A 
ATOM      6  C   UNL     1      50.654   4.848  17.795  0.00  0.00    +0.000 A 
ATOM      7  C   UNL     1      49.280   4.802  17.521  0.00  0.00    +0.000 A 
BRANCH   5   8
ATOM      8  C   UNL     1      52.932   3.791  18.006  0.00  0.00    +0.000 C 
BRANCH   8   9
ATOM      9  C   UNL     1      53.527   5.193  17.826  0.00  0.00    +0.000 C 
BRANCH   9  10
ATOM     10  N   UNL     1      54.458   5.264  16.695  0.00  0.00    +0.000 N 
ATOM     11  C   UNL     1      54.080   6.276  15.778  0.00  0.00    +0.000 A 
ATOM     12  C   UNL     1      54.846   6.502  14.630  0.00  0.00    +0.000 A 
ATOM     13  N   UNL     1      54.553   7.449  13.699  0.00  0.00    +0.000 NA
ATOM     14  C   UNL     1      53.455   8.189  13.968  0.00  0.00    +0.000 A 
ATOM     15  C   UNL     1      52.695   7.990  15.101  0.00  0.00    +0.000 A 
ATOM     16  N   UNL     1      52.993   7.042  16.018  0.00  0.00    +0.000 NA
ATOM     17  H   UNL     1      54.519   4.383  16.192  0.00  0.00    +0.000 HD
ENDBRANCH   9  10
ENDBRANCH   8   9
ENDBRANCH   5   8
ENDBRANCH   1   2
BRANCH   1  20
ATOM     18  O   UNL     1      47.263   3.090  14.019  0.00  0.00    +0.000 OA
ATOM     19  C   UNL     1      46.836   4.151  14.459  0.00  0.00    +0.000 C 
ATOM     20  N   UNL     1      46.832   4.457  15.796  0.00  0.00    +0.000 N 
ATOM     21  H   UNL     1      46.288   5.251  16.112  0.00  0.00    +0.000 HD
BRANCH  19  22
ATOM     22  C   UNL     1      46.357   5.217  13.568  0.00  0.00    +0.000 A 
ATOM     23  C   UNL     1      47.158   6.321  13.309  0.00  0.00    +0.000 A 
ATOM     24  S   UNL     1      46.416   7.479  12.298  0.00  0.00    +0.000 S 
ATOM     25  C   UNL     1      45.020   6.520  12.129  0.00  0.00    +0.000 A 
ATOM     26  N   UNL     1      43.976   6.929  11.359  0.00  0.00    +0.000 NA
ATOM     27  C   UNL     1      43.004   6.083  11.285  0.00  0.00    +0.000 A 
ATOM     28  N   UNL     1      42.977   4.867  11.915  0.00  0.00    +0.000 N 
ATOM     29  C   UNL     1      43.971   4.447  12.762  0.00  0.00    +0.000 A 
ATOM     30  O   UNL     1      43.852   3.414  13.413  0.00  0.00    +0.000 OA
ATOM     31  C   UNL     1      45.111   5.342  12.849  0.00  0.00    +0.000 A 
ATOM     32  H   UNL     1      42.174   4.260  11.840  0.00  0.00    +0.000 HD
ENDBRANCH  19  22
ENDBRANCH   1  20
TORSDOF 6
ENDMDL
MODEL 9
REMARK VINA RESULT:    -6.907      2.012      2.454
REMARK INTER + INTRA:         -10.234
REMARK INTER:                  -9.249
REMARK INTRA:                  -0.985
REMARK UNBOUND:                -0.905
REMARK  Name = 
REMARK  6 active torsions:
REMARK  status: ('A' for Active; 'I' for Inactive)
REMARK    1  A    between atoms: C_2  and  C_20
REMARK    2  A    between atoms: N_3  and  C_4
REMARK    3  A    between atoms: C_4  and  C_5
REMARK    4  A    between atoms: C_8  and  C_9
REMARK    5  A    between atoms: C_9  and  C_10
REMARK    6  A    between atoms: C_10  and  N_11
REMARK                            x       y       z     vdW  Elec       q    Type
REMARK                         _______ _______ _______ _____ _____    ______ ____
ROOT
ATOM      1  C   UNL     1      47.397   8.319  12.568  0.00  0.00    +0.000 C 
ENDROOT
BRANCH   1   2
ATOM      2  C   UNL     1      46.500   7.113  12.635  0.00  0.00    +0.000 A 
ATOM      3  C   UNL     1      45.134   7.260  12.389  0.00  0.00    +0.000 A 
ATOM      4  C   UNL     1      44.281   6.156  12.430  0.00  0.00    +0.000 A 
ATOM      5  C   UNL     1      44.764   4.875  12.728  0.00  0.00    +0.000 A 
ATOM      6  C   UNL     1      46.133   4.735  13.003  0.00  0.00    +0.000 A 
ATOM      7  C   UNL     1      46.991   5.843  12.966  0.00  0.00    +0.000 A 
BRANCH   5   8
ATOM      8  C   UNL     1      43.873   3.644  12.764  0.00  0.00    +0.000 C 
BRANCH   8   9
ATOM      9  C   UNL     1      43.249   3.267  11.415  0.00  0.00    +0.000 C 
BRANCH   9  10
ATOM     10  N   UNL     1      43.978   2.186  10.745  0.00  0.00    +0.000 N 
ATOM     11  C   UNL     1      44.727   2.671   9.645  0.00  0.00    +0.000 A 
ATOM     12  C   UNL     1      45.494   1.791   8.876  0.00  0.00    +0.000 A 
ATOM     13  N   UNL     1      46.237   2.173   7.805  0.00  0.00    +0.000 NA
ATOM     14  C   UNL     1      46.202   3.495   7.530  0.00  0.00    +0.000 A 
ATOM     15  C   UNL     1      45.462   4.381   8.284  0.00  0.00    +0.000 A 
ATOM     16  N   UNL     1      44.721   3.989   9.346  0.00  0.00    +0.000 NA
ATOM     17  H   UNL     1      43.357   1.453  10.411  0.00  0.00    +0.000 HD
ENDBRANCH   9  10
ENDBRANCH   8   9
ENDBRANCH   5   8
ENDBRANCH   1   2
BRANCH   1  20
ATOM     18  O   UNL     1      48.209   9.078  15.176  0.00  0.00    +0.000 OA
ATOM     19  C   UNL     1      48.967   8.417  14.476  0.00  0.00    +0.000 C 
ATOM     20  N   UNL     1      48.672   8.065  13.183  0.00  0.00    +0.000 N 
ATOM     21  H   UNL     1      49.239   7.357  12.730  0.00  0.00    +0.000 HD
BRANCH  19  22
ATOM     22  C   UNL     1      50.297   8.010  14.951  0.00  0.00    +0.000 A 
ATOM     23  C   UNL     1      51.429   8.686  14.517  0.00  0.00    +0.000 A 
ATOM     24  S   UNL     1      52.885   8.041  15.131  0.00  0.00    +0.000 S 
ATOM     25  C   UNL     1      52.048   6.870  16.040  0.00  0.00    +0.000 A 
ATOM     26  N   UNL     1      52.716   5.984  16.827  0.00  0.00    +0.000 NA
ATOM     27  C   UNL     1      51.953   5.184  17.495  0.00  0.00    +0.000 A 
ATOM     28  N   UNL     1      50.585   5.185  17.444  0.00  0.00    +0.000 N 
ATOM     29  C   UNL     1      49.873   6.006  16.607  0.00  0.00    +0.000 A 
ATOM     30  O   UNL     1      48.658   5.887  16.488  0.00  0.00    +0.000 OA
ATOM     31  C   UNL     1      50.679   6.958  15.863  0.00  0.00    +0.000 A 
ATOM     32  H   UNL     1      50.044   4.514  17.970  0.00  0.00    +0.000 HD
ENDBRANCH  19  22
ENDBRANCH   1  20
TORSDOF 6
ENDMDL
