MODEL 1
REMARK VINA RESULT:    -8.698      0.000      0.000
REMARK INTER + INTRA:         -14.059
REMARK INTER:                 -13.020
REMARK INTRA:                  -1.039
REMARK UNBOUND:                -1.039
REMARK  Name = 
REMARK  9 active torsions:
REMARK  status: ('A' for Active; 'I' for Inactive)
REMARK    1  A    between atoms: N_1  and  C_2
REMARK    2  A    between atoms: C_2  and  C_3
REMARK    3  A    between atoms: C_3  and  N_4
REMARK    4  A    between atoms: C_3  and  C_12
REMARK    5  A    between atoms: N_4  and  C_5
REMARK    6  A    between atoms: C_5  and  C_6
REMARK    7  A    between atoms: C_15  and  C_16
REMARK    8  A    between atoms: C_16  and  N_17
REMARK    9  A    between atoms: C_18  and  C_20
REMARK                            x       y       z     vdW  Elec       q    Type
REMARK                         _______ _______ _______ _____ _____    ______ ____
ROOT
ATOM      1  C   UNL     1      45.236   4.727  11.960  0.00  0.00    +0.000 A 
ATOM      2  C   UNL     1      45.820   5.875  11.393  0.00  0.00    +0.000 A 
ATOM      3  C   UNL     1      46.862   6.553  12.035  0.00  0.00    +0.000 A 
ATOM      4  C   UNL     1      47.387   6.069  13.237  0.00  0.00    +0.000 A 
ATOM      5  C   UNL     1      46.811   4.928  13.809  0.00  0.00    +0.000 A 
ATOM      6  C   UNL     1      45.744   4.273  13.186  0.00  0.00    +0.000 A 
ENDROOT
BRANCH   1   7
ATOM      7  C   UNL     1      44.032   4.071  11.271  0.00  0.00    +0.000 C 
BRANCH   7   8
ATOM      8  N   UNL     1      44.280   3.796   9.840  0.00  0.00    +0.000 NA
ATOM      9  H   UNL     1      44.913   4.495   9.462  0.00  0.00    +0.000 HD
BRANCH   8  10
ATOM     10  C   UNL     1      44.803   2.458   9.582  0.00  0.00    +0.000 C 
BRANCH  10  11
ATOM     11  C   UNL     1      45.693   2.406   8.363  0.00  0.00    +0.000 A 
ATOM     12  C   UNL     1      45.837   3.542   7.548  0.00  0.00    +0.000 A 
ATOM     13  C   UNL     1      46.712   3.525   6.461  0.00  0.00    +0.000 A 
ATOM     14  C   UNL     1      47.446   2.376   6.176  0.00  0.00    +0.000 A 
ATOM     15  C   UNL     1      47.299   1.240   6.970  0.00  0.00    +0.000 A 
ATOM     16  C   UNL     1      46.425   1.253   8.058  0.00  0.00    +0.000 A 
ENDBRANCH  10  11
ENDBRANCH   8  10
ENDBRANCH   7   8
BRANCH   7  17
ATOM     17  C   UNL     1      42.722   4.923  11.449  0.00  0.00    +0.000 C 
BRANCH  17  18
ATOM     18  N   UNL     1      42.467   5.433  12.802  0.00  0.00    +0.000 NA
ATOM     19  H   UNL     1      41.699   4.911  13.221  0.00  0.00    +0.000 HD
ATOM     20  H   UNL     1      42.175   6.406  12.753  0.00  0.00    +0.000 HD
ENDBRANCH  17  18
ENDBRANCH   7  17
ENDBRANCH   1   7
BRANCH   4  21
ATOM     21  C   UNL     1      48.533   6.765  13.919  0.00  0.00    +0.000 C 
BRANCH  21  22
ATOM     22  N   UNL     1      48.279   6.979  15.323  0.00  0.00    +0.000 N 
ATOM     23  C   UNL     1      49.199   6.583  16.262  0.00  0.00    +0.000 C 
ATOM     24  O   UNL     1      50.275   6.084  15.942  0.00  0.00    +0.000 OA
ATOM     25  H   UNL     1      47.325   7.181  15.605  0.00  0.00    +0.000 HD
BRANCH  23  26
ATOM     26  C   UNL     1      48.866   6.833  17.669  0.00  0.00    +0.000 A 
ATOM     27  C   UNL     1      48.661   8.138  18.100  0.00  0.00    +0.000 A 
ATOM     28  S   UNL     1      48.262   8.260  19.752  0.00  0.00    +0.000 S 
ATOM     29  C   UNL     1      48.398   6.578  19.965  0.00  0.00    +0.000 A 
ATOM     30  N   UNL     1      48.213   6.010  21.186  0.00  0.00    +0.000 NA
ATOM     31  C   UNL     1      48.381   4.730  21.212  0.00  0.00    +0.000 A 
ATOM     32  N   UNL     1      48.705   3.965  20.120  0.00  0.00    +0.000 N 
ATOM     33  C   UNL     1      48.860   4.489  18.858  0.00  0.00    +0.000 A 
ATOM     34  O   UNL     1      49.086   3.766  17.891  0.00  0.00    +0.000 OA
ATOM     35  C   UNL     1      48.711   5.929  18.782  0.00  0.00    +0.000 A 
ATOM     36  H   UNL     1      48.800   2.964  20.206  0.00  0.00    +0.000 HD
ENDBRANCH  23  26
ENDBRANCH  21  22
ENDBRANCH   4  21
TORSDOF 9
ENDMDL
MODEL 2
REMARK VINA RESULT:    -8.436      1.175      1.744
REMARK INTER + INTRA:         -13.667
REMARK INTER:                 -12.433
REMARK INTRA:                  -1.235
REMARK UNBOUND:                -1.039
REMARK  Name = 
REMARK  9 active torsions:
REMARK  status: ('A' for Active; 'I' for Inactive)
REMARK    1  A    between atoms: N_1  and  C_2
REMARK    2  A    between atoms: C_2  and  C_3
REMARK    3  A    between atoms: C_3  and  N_4
REMARK    4  A    between atoms: C_3  and  C_12
REMARK    5  A    between atoms: N_4  and  C_5
REMARK    6  A    between atoms: C_5  and  C_6
REMARK    7  A    between atoms: C_15  and  C_16
REMARK    8  A    between atoms: C_16  and  N_17
REMARK    9  A    between atoms: C_18  and  C_20
REMARK                            x       y       z     vdW  Elec       q    Type
REMARK                         _______ _______ _______ _____ _____    ______ ____
ROOT
ATOM      1  C   UNL     1      45.230   4.977  11.864  0.00  0.00    +0.000 A 
ATOM      2  C   UNL     1      45.913   4.532  13.011  0.00  0.00    +0.000 A 
ATOM      3  C   UNL     1      47.112   5.128  13.420  0.00  0.00    +0.000 A 
ATOM      4  C   UNL     1      47.633   6.222  12.724  0.00  0.00    +0.000 A 
ATOM      5  C   UNL     1      46.961   6.671  11.581  0.00  0.00    +0.000 A 
ATOM      6  C   UNL     1      45.783   6.051  11.150  0.00  0.00    +0.000 A 
ENDROOT
BRANCH   1   7
ATOM      7  C   UNL     1      43.972   4.235  11.397  0.00  0.00    +0.000 C 
BRANCH   7   8
ATOM      8  N   UNL     1      43.985   3.956   9.946  0.00  0.00    +0.000 NA
ATOM      9  H   UNL     1      44.578   4.633   9.472  0.00  0.00    +0.000 HD
BRANCH   8  10
ATOM     10  C   UNL     1      44.413   2.601   9.611  0.00  0.00    +0.000 C 
BRANCH  10  11
ATOM     11  C   UNL     1      45.519   2.576   8.585  0.00  0.00    +0.000 A 
ATOM     12  C   UNL     1      46.149   1.362   8.259  0.00  0.00    +0.000 A 
ATOM     13  C   UNL     1      47.123   1.318   7.261  0.00  0.00    +0.000 A 
ATOM     14  C   UNL     1      47.479   2.482   6.583  0.00  0.00    +0.000 A 
ATOM     15  C   UNL     1      46.870   3.692   6.910  0.00  0.00    +0.000 A 
ATOM     16  C   UNL     1      45.896   3.741   7.908  0.00  0.00    +0.000 A 
ENDBRANCH  10  11
ENDBRANCH   8  10
ENDBRANCH   7   8
BRANCH   7  17
ATOM     17  C   UNL     1      42.659   5.001  11.798  0.00  0.00    +0.000 C 
BRANCH  17  18
ATOM     18  N   UNL     1      42.587   5.464  13.190  0.00  0.00    +0.000 NA
ATOM     19  H   UNL     1      43.367   5.076  13.716  0.00  0.00    +0.000 HD
ATOM     20  H   UNL     1      41.733   5.119  13.623  0.00  0.00    +0.000 HD
ENDBRANCH  17  18
ENDBRANCH   7  17
ENDBRANCH   1   7
BRANCH   4  21
ATOM     21  C   UNL     1      48.900   6.897  13.174  0.00  0.00    +0.000 C 
BRANCH  21  22
ATOM     22  N   UNL     1      49.213   6.599  14.550  0.00  0.00    +0.000 N 
ATOM     23  C   UNL     1      48.874   7.482  15.545  0.00  0.00    +0.000 C 
ATOM     24  O   UNL     1      48.258   8.518  15.307  0.00  0.00    +0.000 OA
ATOM     25  H   UNL     1      49.900   5.874  14.732  0.00  0.00    +0.000 HD
BRANCH  23  26
ATOM     26  C   UNL     1      49.230   7.109  16.919  0.00  0.00    +0.000 A 
ATOM     27  C   UNL     1      50.103   7.914  17.641  0.00  0.00    +0.000 A 
ATOM     28  S   UNL     1      50.399   7.358  19.224  0.00  0.00    +0.000 S 
ATOM     29  C   UNL     1      49.411   5.993  18.987  0.00  0.00    +0.000 A 
ATOM     30  N   UNL     1      49.258   5.063  19.966  0.00  0.00    +0.000 NA
ATOM     31  C   UNL     1      48.510   4.061  19.640  0.00  0.00    +0.000 A 
ATOM     32  N   UNL     1      47.892   3.915  18.425  0.00  0.00    +0.000 N 
ATOM     33  C   UNL     1      47.983   4.850  17.420  0.00  0.00    +0.000 A 
ATOM     34  O   UNL     1      47.363   4.719  16.368  0.00  0.00    +0.000 OA
ATOM     35  C   UNL     1      48.838   5.981  17.727  0.00  0.00    +0.000 A 
ATOM     36  H   UNL     1      47.302   3.116  18.242  0.00  0.00    +0.000 HD
ENDBRANCH  23  26
ENDBRANCH  21  22
ENDBRANCH   4  21
TORSDOF 9
ENDMDL
MODEL 3
REMARK VINA RESULT:    -8.356      1.464      2.094
REMARK INTER + INTRA:         -13.547
REMARK INTER:                 -12.439
REMARK INTRA:                  -1.108
REMARK UNBOUND:                -1.039
REMARK  Name = 
REMARK  9 active torsions:
REMARK  status: ('A' for Active; 'I' for Inactive)
REMARK    1  A    between atoms: N_1  and  C_2
REMARK    2  A    between atoms: C_2  and  C_3
REMARK    3  A    between atoms: C_3  and  N_4
REMARK    4  A    between atoms: C_3  and  C_12
REMARK    5  A    between atoms: N_4  and  C_5
REMARK    6  A    between atoms: C_5  and  C_6
REMARK    7  A    between atoms: C_15  and  C_16
REMARK    8  A    between atoms: C_16  and  N_17
REMARK    9  A    between atoms: C_18  and  C_20
REMARK                            x       y       z     vdW  Elec       q    Type
REMARK                         _______ _______ _______ _____ _____    ______ ____
ROOT
ATOM      1  C   UNL     1      45.449   4.610  12.137  0.00  0.00    +0.000 A 
ATOM      2  C   UNL     1      46.041   5.773  11.609  0.00  0.00    +0.000 A 
ATOM      3  C   UNL     1      46.983   6.504  12.341  0.00  0.00    +0.000 A 
ATOM      4  C   UNL     1      47.402   6.062  13.599  0.00  0.00    +0.000 A 
ATOM      5  C   UNL     1      46.818   4.907  14.132  0.00  0.00    +0.000 A 
ATOM      6  C   UNL     1      45.848   4.197  13.416  0.00  0.00    +0.000 A 
ENDROOT
BRANCH   1   7
ATOM      7  C   UNL     1      44.350   3.893  11.342  0.00  0.00    +0.000 C 
BRANCH   7   8
ATOM      8  N   UNL     1      44.849   2.688  10.646  0.00  0.00    +0.000 NA
ATOM      9  H   UNL     1      44.594   1.857  11.174  0.00  0.00    +0.000 HD
BRANCH   8  10
ATOM     10  C   UNL     1      44.377   2.567   9.270  0.00  0.00    +0.000 C 
BRANCH  10  11
ATOM     11  C   UNL     1      45.507   2.472   8.273  0.00  0.00    +0.000 A 
ATOM     12  C   UNL     1      45.868   3.594   7.508  0.00  0.00    +0.000 A 
ATOM     13  C   UNL     1      46.955   3.535   6.636  0.00  0.00    +0.000 A 
ATOM     14  C   UNL     1      47.690   2.358   6.518  0.00  0.00    +0.000 A 
ATOM     15  C   UNL     1      47.331   1.234   7.262  0.00  0.00    +0.000 A 
ATOM     16  C   UNL     1      46.243   1.289   8.134  0.00  0.00    +0.000 A 
ENDBRANCH  10  11
ENDBRANCH   8  10
ENDBRANCH   7   8
BRANCH   7  17
ATOM     17  C   UNL     1      43.639   4.860  10.326  0.00  0.00    +0.000 C 
BRANCH  17  18
ATOM     18  N   UNL     1      42.725   5.848  10.914  0.00  0.00    +0.000 NA
ATOM     19  H   UNL     1      42.124   6.228  10.186  0.00  0.00    +0.000 HD
ATOM     20  H   UNL     1      43.260   6.626  11.296  0.00  0.00    +0.000 HD
ENDBRANCH  17  18
ENDBRANCH   7  17
ENDBRANCH   1   7
BRANCH   4  21
ATOM     21  C   UNL     1      48.443   6.817  14.380  0.00  0.00    +0.000 C 
BRANCH  21  22
ATOM     22  N   UNL     1      48.176   6.798  15.798  0.00  0.00    +0.000 N 
ATOM     23  C   UNL     1      49.094   6.265  16.668  0.00  0.00    +0.000 C 
ATOM     24  O   UNL     1      50.179   5.838  16.281  0.00  0.00    +0.000 OA
ATOM     25  H   UNL     1      47.217   6.939  16.100  0.00  0.00    +0.000 HD
BRANCH  23  26
ATOM     26  C   UNL     1      48.748   6.280  18.095  0.00  0.00    +0.000 A 
ATOM     27  C   UNL     1      48.912   5.124  18.848  0.00  0.00    +0.000 A 
ATOM     28  S   UNL     1      48.488   5.308  20.488  0.00  0.00    +0.000 S 
ATOM     29  C   UNL     1      48.021   6.926  20.241  0.00  0.00    +0.000 A 
ATOM     30  N   UNL     1      47.515   7.670  21.259  0.00  0.00    +0.000 NA
ATOM     31  C   UNL     1      47.168   8.868  20.925  0.00  0.00    +0.000 A 
ATOM     32  N   UNL     1      47.295   9.392  19.663  0.00  0.00    +0.000 N 
ATOM     33  C   UNL     1      47.840   8.691  18.613  0.00  0.00    +0.000 A 
ATOM     34  O   UNL     1      47.999   9.213  17.512  0.00  0.00    +0.000 OA
ATOM     35  C   UNL     1      48.218   7.328  18.931  0.00  0.00    +0.000 A 
ATOM     36  H   UNL     1      47.024  10.346  19.474  0.00  0.00    +0.000 HD
ENDBRANCH  23  26
ENDBRANCH  21  22
ENDBRANCH   4  21
TORSDOF 9
ENDMDL
MODEL 4
REMARK VINA RESULT:    -8.224      2.132      2.624
REMARK INTER + INTRA:         -13.349
REMARK INTER:                 -11.994
REMARK INTRA:                  -1.355
REMARK UNBOUND:                -1.039
REMARK  Name = 
REMARK  9 active torsions:
REMARK  status: ('A' for Active; 'I' for Inactive)
REMARK    1  A    between atoms: N_1  and  C_2
REMARK    2  A    between atoms: C_2  and  C_3
REMARK    3  A    between atoms: C_3  and  N_4
REMARK    4  A    between atoms: C_3  and  C_12
REMARK    5  A    between atoms: N_4  and  C_5
REMARK    6  A    between atoms: C_5  and  C_6
REMARK    7  A    between atoms: C_15  and  C_16
REMARK    8  A    between atoms: C_16  and  N_17
REMARK    9  A    between atoms: C_18  and  C_20
REMARK                            x       y       z     vdW  Elec       q    Type
REMARK                         _______ _______ _______ _____ _____    ______ ____
ROOT
ATOM      1  C   UNL     1      45.556   5.005  12.170  0.00  0.00    +0.000 A 
ATOM      2  C   UNL     1      46.397   4.906  13.293  0.00  0.00    +0.000 A 
ATOM      3  C   UNL     1      47.488   5.766  13.462  0.00  0.00    +0.000 A 
ATOM      4  C   UNL     1      47.735   6.786  12.539  0.00  0.00    +0.000 A 
ATOM      5  C   UNL     1      46.904   6.891  11.418  0.00  0.00    +0.000 A 
ATOM      6  C   UNL     1      45.836   6.007  11.230  0.00  0.00    +0.000 A 
ENDROOT
BRANCH   1   7
ATOM      7  C   UNL     1      44.430   3.981  11.975  0.00  0.00    +0.000 C 
BRANCH   7   8
ATOM      8  N   UNL     1      44.869   2.795  11.212  0.00  0.00    +0.000 NA
ATOM      9  H   UNL     1      44.663   1.951  11.742  0.00  0.00    +0.000 HD
BRANCH   8  10
ATOM     10  C   UNL     1      44.280   2.702   9.880  0.00  0.00    +0.000 C 
BRANCH  10  11
ATOM     11  C   UNL     1      45.319   2.672   8.784  0.00  0.00    +0.000 A 
ATOM     12  C   UNL     1      45.702   3.864   8.145  0.00  0.00    +0.000 A 
ATOM     13  C   UNL     1      46.711   3.856   7.181  0.00  0.00    +0.000 A 
ATOM     14  C   UNL     1      47.344   2.661   6.846  0.00  0.00    +0.000 A 
ATOM     15  C   UNL     1      46.961   1.472   7.465  0.00  0.00    +0.000 A 
ATOM     16  C   UNL     1      45.951   1.476   8.428  0.00  0.00    +0.000 A 
ENDBRANCH  10  11
ENDBRANCH   8  10
ENDBRANCH   7   8
BRANCH   7  17
ATOM     17  C   UNL     1      43.162   4.628  11.306  0.00  0.00    +0.000 C 
BRANCH  17  18
ATOM     18  N   UNL     1      42.402   5.565  12.143  0.00  0.00    +0.000 NA
ATOM     19  H   UNL     1      42.021   6.307  11.559  0.00  0.00    +0.000 HD
ATOM     20  H   UNL     1      43.025   6.006  12.816  0.00  0.00    +0.000 HD
ENDBRANCH  17  18
ENDBRANCH   7  17
ENDBRANCH   1   7
BRANCH   4  21
ATOM     21  C   UNL     1      48.881   7.743  12.728  0.00  0.00    +0.000 C 
BRANCH  21  22
ATOM     22  N   UNL     1      49.896   7.208  13.602  0.00  0.00    +0.000 N 
ATOM     23  C   UNL     1      49.998   7.649  14.898  0.00  0.00    +0.000 C 
ATOM     24  O   UNL     1      49.209   8.466  15.366  0.00  0.00    +0.000 OA
ATOM     25  H   UNL     1      50.673   6.711  13.176  0.00  0.00    +0.000 HD
BRANCH  23  26
ATOM     26  C   UNL     1      51.058   7.058  15.723  0.00  0.00    +0.000 A 
ATOM     27  C   UNL     1      52.372   7.474  15.546  0.00  0.00    +0.000 A 
ATOM     28  S   UNL     1      53.481   6.711  16.591  0.00  0.00    +0.000 S 
ATOM     29  C   UNL     1      52.253   5.758  17.284  0.00  0.00    +0.000 A 
ATOM     30  N   UNL     1      52.539   4.840  18.244  0.00  0.00    +0.000 NA
ATOM     31  C   UNL     1      51.521   4.162  18.657  0.00  0.00    +0.000 A 
ATOM     32  N   UNL     1      50.238   4.331  18.202  0.00  0.00    +0.000 N 
ATOM     33  C   UNL     1      49.894   5.276  17.264  0.00  0.00    +0.000 A 
ATOM     34  O   UNL     1      48.724   5.445  16.927  0.00  0.00    +0.000 OA
ATOM     35  C   UNL     1      51.009   6.044  16.747  0.00  0.00    +0.000 A 
ATOM     36  H   UNL     1      49.482   3.781  18.584  0.00  0.00    +0.000 HD
ENDBRANCH  23  26
ENDBRANCH  21  22
ENDBRANCH   4  21
TORSDOF 9
ENDMDL
MODEL 5
REMARK VINA RESULT:    -7.689      4.524      6.632
REMARK INTER + INTRA:         -12.548
REMARK INTER:                 -11.164
REMARK INTRA:                  -1.385
REMARK UNBOUND:                -1.039
REMARK  Name = 
REMARK  9 active torsions:
REMARK  status: ('A' for Active; 'I' for Inactive)
REMARK    1  A    between atoms: N_1  and  C_2
REMARK    2  A    between atoms: C_2  and  C_3
REMARK    3  A    between atoms: C_3  and  N_4
REMARK    4  A    between atoms: C_3  and  C_12
REMARK    5  A    between atoms: N_4  and  C_5
REMARK    6  A    between atoms: C_5  and  C_6
REMARK    7  A    between atoms: C_15  and  C_16
REMARK    8  A    between atoms: C_16  and  N_17
REMARK    9  A    between atoms: C_18  and  C_20
REMARK                            x       y       z     vdW  Elec       q    Type
REMARK                         _______ _______ _______ _____ _____    ______ ____
ROOT
ATOM      1  C   UNL     1      45.572   4.760  12.194  0.00  0.00    +0.000 A 
ATOM      2  C   UNL     1      45.737   5.941  11.447  0.00  0.00    +0.000 A 
ATOM      3  C   UNL     1      46.694   6.897  11.801  0.00  0.00    +0.000 A 
ATOM      4  C   UNL     1      47.554   6.673  12.880  0.00  0.00    +0.000 A 
ATOM      5  C   UNL     1      47.397   5.502  13.630  0.00  0.00    +0.000 A 
ATOM      6  C   UNL     1      46.413   4.563  13.299  0.00  0.00    +0.000 A 
ENDROOT
BRANCH   1   7
ATOM      7  C   UNL     1      44.446   3.784  11.829  0.00  0.00    +0.000 C 
BRANCH   7   8
ATOM      8  N   UNL     1      44.923   2.647  11.015  0.00  0.00    +0.000 NA
ATOM      9  H   UNL     1      44.729   1.774  11.498  0.00  0.00    +0.000 HD
BRANCH   8  10
ATOM     10  C   UNL     1      44.355   2.609   9.670  0.00  0.00    +0.000 C 
BRANCH  10  11
ATOM     11  C   UNL     1      45.412   2.577   8.592  0.00  0.00    +0.000 A 
ATOM     12  C   UNL     1      45.780   3.763   7.934  0.00  0.00    +0.000 A 
ATOM     13  C   UNL     1      46.805   3.755   6.986  0.00  0.00    +0.000 A 
ATOM     14  C   UNL     1      47.467   2.567   6.687  0.00  0.00    +0.000 A 
ATOM     15  C   UNL     1      47.099   1.383   7.325  0.00  0.00    +0.000 A 
ATOM     16  C   UNL     1      46.074   1.387   8.272  0.00  0.00    +0.000 A 
ENDBRANCH  10  11
ENDBRANCH   8  10
ENDBRANCH   7   8
BRANCH   7  17
ATOM     17  C   UNL     1      43.252   4.513  11.111  0.00  0.00    +0.000 C 
BRANCH  17  18
ATOM     18  N   UNL     1      42.207   5.054  11.990  0.00  0.00    +0.000 NA
ATOM     19  H   UNL     1      41.314   5.038  11.503  0.00  0.00    +0.000 HD
ATOM     20  H   UNL     1      42.411   6.027  12.208  0.00  0.00    +0.000 HD
ENDBRANCH  17  18
ENDBRANCH   7  17
ENDBRANCH   1   7
BRANCH   4  21
ATOM     21  C   UNL     1      48.615   7.675  13.249  0.00  0.00    +0.000 C 
BRANCH  21  22
ATOM     22  N   UNL     1      48.923   8.565  12.157  0.00  0.00    +0.000 N 
ATOM     23  C   UNL     1      48.724   9.916  12.287  0.00  0.00    +0.000 C 
ATOM     24  O   UNL     1      48.329  10.413  13.339  0.00  0.00    +0.000 OA
ATOM     25  H   UNL     1      49.035   8.158  11.233  0.00  0.00    +0.000 HD
BRANCH  23  26
ATOM     26  C   UNL     1      49.060  10.755  11.130  0.00  0.00    +0.000 A 
ATOM     27  C   UNL     1      48.063  11.508  10.522  0.00  0.00    +0.000 A 
ATOM     28  S   UNL     1      48.615  12.443   9.208  0.00  0.00    +0.000 S 
ATOM     29  C   UNL     1      50.196  11.837   9.372  0.00  0.00    +0.000 A 
ATOM     30  N   UNL     1      51.181  12.213   8.514  0.00  0.00    +0.000 NA
ATOM     31  C   UNL     1      52.323  11.650   8.731  0.00  0.00    +0.000 A 
ATOM     32  N   UNL     1      52.570  10.753   9.738  0.00  0.00    +0.000 N 
ATOM     33  C   UNL     1      51.617  10.376  10.655  0.00  0.00    +0.000 A 
ATOM     34  O   UNL     1      51.889   9.620  11.585  0.00  0.00    +0.000 OA
ATOM     35  C   UNL     1      50.307  10.958  10.436  0.00  0.00    +0.000 A 
ATOM     36  H   UNL     1      53.493  10.366   9.866  0.00  0.00    +0.000 HD
ENDBRANCH  23  26
ENDBRANCH  21  22
ENDBRANCH   4  21
TORSDOF 9
ENDMDL
MODEL 6
REMARK VINA RESULT:    -7.320      1.779      2.554
REMARK INTER + INTRA:         -11.996
REMARK INTER:                 -10.912
REMARK INTRA:                  -1.085
REMARK UNBOUND:                -1.039
REMARK  Name = 
REMARK  9 active torsions:
REMARK  status: ('A' for Active; 'I' for Inactive)
REMARK    1  A    between atoms: N_1  and  C_2
REMARK    2  A    between atoms: C_2  and  C_3
REMARK    3  A    between atoms: C_3  and  N_4
REMARK    4  A    between atoms: C_3  and  C_12
REMARK    5  A    between atoms: N_4  and  C_5
REMARK    6  A    between atoms: C_5  and  C_6
REMARK    7  A    between atoms: C_15  and  C_16
REMARK    8  A    between atoms: C_16  and  N_17
REMARK    9  A    between atoms: C_18  and  C_20
REMARK                            x       y       z     vdW  Elec       q    Type
REMARK                         _______ _______ _______ _____ _____    ______ ____
ROOT
ATOM      1  C   UNL     1      46.097   5.162  12.338  0.00  0.00    +0.000 A 
ATOM      2  C   UNL     1      46.424   4.739  13.640  0.00  0.00    +0.000 A 
ATOM      3  C   UNL     1      47.400   5.399  14.394  0.00  0.00    +0.000 A 
ATOM      4  C   UNL     1      48.038   6.535  13.889  0.00  0.00    +0.000 A 
ATOM      5  C   UNL     1      47.720   6.963  12.595  0.00  0.00    +0.000 A 
ATOM      6  C   UNL     1      46.771   6.280  11.826  0.00  0.00    +0.000 A 
ENDROOT
BRANCH   1   7
ATOM      7  C   UNL     1      45.091   4.352  11.510  0.00  0.00    +0.000 C 
BRANCH   7   8
ATOM      8  N   UNL     1      44.602   5.094  10.330  0.00  0.00    +0.000 NA
ATOM      9  H   UNL     1      45.342   5.691   9.969  0.00  0.00    +0.000 HD
BRANCH   8  10
ATOM     10  C   UNL     1      44.092   4.235   9.266  0.00  0.00    +0.000 C 
BRANCH  10  11
ATOM     11  C   UNL     1      45.180   3.435   8.592  0.00  0.00    +0.000 A 
ATOM     12  C   UNL     1      45.273   2.049   8.811  0.00  0.00    +0.000 A 
ATOM     13  C   UNL     1      46.231   1.290   8.138  0.00  0.00    +0.000 A 
ATOM     14  C   UNL     1      47.104   1.905   7.243  0.00  0.00    +0.000 A 
ATOM     15  C   UNL     1      47.028   3.281   7.030  0.00  0.00    +0.000 A 
ATOM     16  C   UNL     1      46.073   4.044   7.702  0.00  0.00    +0.000 A 
ENDBRANCH  10  11
ENDBRANCH   8  10
ENDBRANCH   7   8
BRANCH   7  17
ATOM     17  C   UNL     1      43.884   3.851  12.385  0.00  0.00    +0.000 C 
BRANCH  17  18
ATOM     18  N   UNL     1      43.715   2.395  12.470  0.00  0.00    +0.000 NA
ATOM     19  H   UNL     1      44.609   1.964  12.699  0.00  0.00    +0.000 HD
ATOM     20  H   UNL     1      43.430   2.028  11.565  0.00  0.00    +0.000 HD
ENDBRANCH  17  18
ENDBRANCH   7  17
ENDBRANCH   1   7
BRANCH   4  21
ATOM     21  C   UNL     1      49.062   7.278  14.704  0.00  0.00    +0.000 C 
BRANCH  21  22
ATOM     22  N   UNL     1      48.903   7.044  16.118  0.00  0.00    +0.000 N 
ATOM     23  C   UNL     1      49.875   6.382  16.825  0.00  0.00    +0.000 C 
ATOM     24  O   UNL     1      50.921   6.014  16.295  0.00  0.00    +0.000 OA
ATOM     25  H   UNL     1      47.971   7.142  16.512  0.00  0.00    +0.000 HD
BRANCH  23  26
ATOM     26  C   UNL     1      49.638   6.180  18.260  0.00  0.00    +0.000 A 
ATOM     27  C   UNL     1      48.761   5.185  18.672  0.00  0.00    +0.000 A 
ATOM     28  S   UNL     1      48.610   5.063  20.365  0.00  0.00    +0.000 S 
ATOM     29  C   UNL     1      49.671   6.370  20.608  0.00  0.00    +0.000 A 
ATOM     30  N   UNL     1      49.953   6.818  21.860  0.00  0.00    +0.000 NA
ATOM     31  C   UNL     1      50.744   7.838  21.897  0.00  0.00    +0.000 A 
ATOM     32  N   UNL     1      51.289   8.441  20.793  0.00  0.00    +0.000 N 
ATOM     33  C   UNL     1      51.068   7.997  19.511  0.00  0.00    +0.000 A 
ATOM     34  O   UNL     1      51.624   8.520  18.548  0.00  0.00    +0.000 OA
ATOM     35  C   UNL     1      50.159   6.870  19.413  0.00  0.00    +0.000 A 
ATOM     36  H   UNL     1      51.920   9.223  20.894  0.00  0.00    +0.000 HD
ENDBRANCH  23  26
ENDBRANCH  21  22
ENDBRANCH   4  21
TORSDOF 9
ENDMDL
MODEL 7
REMARK VINA RESULT:    -7.283      4.307      5.633
REMARK INTER + INTRA:         -11.941
REMARK INTER:                 -10.792
REMARK INTRA:                  -1.150
REMARK UNBOUND:                -1.039
REMARK  Name = 
REMARK  9 active torsions:
REMARK  status: ('A' for Active; 'I' for Inactive)
REMARK    1  A    between atoms: N_1  and  C_2
REMARK    2  A    between atoms: C_2  and  C_3
REMARK    3  A    between atoms: C_3  and  N_4
REMARK    4  A    between atoms: C_3  and  C_12
REMARK    5  A    between atoms: N_4  and  C_5
REMARK    6  A    between atoms: C_5  and  C_6
REMARK    7  A    between atoms: C_15  and  C_16
REMARK    8  A    between atoms: C_16  and  N_17
REMARK    9  A    between atoms: C_18  and  C_20
REMARK                            x       y       z     vdW  Elec       q    Type
REMARK                         _______ _______ _______ _____ _____    ______ ____
ROOT
ATOM      1  C   UNL     1      45.387   5.010  12.255  0.00  0.00    +0.000 A 
ATOM      2  C   UNL     1      45.172   6.342  11.856  0.00  0.00    +0.000 A 
ATOM      3  C   UNL     1      46.020   7.372  12.276  0.00  0.00    +0.000 A 
ATOM      4  C   UNL     1      47.141   7.091  13.062  0.00  0.00    +0.000 A 
ATOM      5  C   UNL     1      47.363   5.768  13.464  0.00  0.00    +0.000 A 
ATOM      6  C   UNL     1      46.493   4.744  13.076  0.00  0.00    +0.000 A 
ENDROOT
BRANCH   1   7
ATOM      7  C   UNL     1      44.378   3.927  11.851  0.00  0.00    +0.000 C 
BRANCH   7   8
ATOM      8  N   UNL     1      45.000   2.834  11.075  0.00  0.00    +0.000 NA
ATOM      9  H   UNL     1      44.933   1.963  11.596  0.00  0.00    +0.000 HD
BRANCH   8  10
ATOM     10  C   UNL     1      44.431   2.661   9.742  0.00  0.00    +0.000 C 
BRANCH  10  11
ATOM     11  C   UNL     1      45.483   2.615   8.661  0.00  0.00    +0.000 A 
ATOM     12  C   UNL     1      46.097   1.395   8.329  0.00  0.00    +0.000 A 
ATOM     13  C   UNL     1      47.019   1.330   7.283  0.00  0.00    +0.000 A 
ATOM     14  C   UNL     1      47.335   2.479   6.562  0.00  0.00    +0.000 A 
ATOM     15  C   UNL     1      46.741   3.696   6.893  0.00  0.00    +0.000 A 
ATOM     16  C   UNL     1      45.821   3.766   7.939  0.00  0.00    +0.000 A 
ENDBRANCH  10  11
ENDBRANCH   8  10
ENDBRANCH   7   8
BRANCH   7  17
ATOM     17  C   UNL     1      43.155   4.530  11.068  0.00  0.00    +0.000 C 
BRANCH  17  18
ATOM     18  N   UNL     1      42.133   5.195  11.888  0.00  0.00    +0.000 NA
ATOM     19  H   UNL     1      41.225   5.099  11.438  0.00  0.00    +0.000 HD
ATOM     20  H   UNL     1      42.334   6.190  11.946  0.00  0.00    +0.000 HD
ENDBRANCH  17  18
ENDBRANCH   7  17
ENDBRANCH   1   7
BRANCH   4  21
ATOM     21  C   UNL     1      48.084   8.183  13.489  0.00  0.00    +0.000 C 
BRANCH  21  22
ATOM     22  N   UNL     1      49.441   7.920  13.076  0.00  0.00    +0.000 N 
ATOM     23  C   UNL     1      49.929   8.462  11.914  0.00  0.00    +0.000 C 
ATOM     24  O   UNL     1      49.253   9.219  11.221  0.00  0.00    +0.000 OA
ATOM     25  H   UNL     1      49.924   7.139  13.510  0.00  0.00    +0.000 HD
BRANCH  23  26
ATOM     26  C   UNL     1      51.318   8.145  11.560  0.00  0.00    +0.000 A 
ATOM     27  C   UNL     1      51.577   7.394  10.421  0.00  0.00    +0.000 A 
ATOM     28  S   UNL     1      53.236   7.130  10.136  0.00  0.00    +0.000 S 
ATOM     29  C   UNL     1      53.668   7.966  11.554  0.00  0.00    +0.000 A 
ATOM     30  N   UNL     1      54.969   8.080  11.930  0.00  0.00    +0.000 NA
ATOM     31  C   UNL     1      55.151   8.708  13.043  0.00  0.00    +0.000 A 
ATOM     32  N   UNL     1      54.146   9.244  13.808  0.00  0.00    +0.000 N 
ATOM     33  C   UNL     1      52.820   9.191  13.446  0.00  0.00    +0.000 A 
ATOM     34  O   UNL     1      51.952   9.739  14.122  0.00  0.00    +0.000 OA
ATOM     35  C   UNL     1      52.560   8.468  12.217  0.00  0.00    +0.000 A 
ATOM     36  H   UNL     1      54.359   9.743  14.659  0.00  0.00    +0.000 HD
ENDBRANCH  23  26
ENDBRANCH  21  22
ENDBRANCH   4  21
TORSDOF 9
ENDMDL
MODEL 8
REMARK VINA RESULT:    -7.162      4.751      6.675
REMARK INTER + INTRA:         -11.760
REMARK INTER:                 -10.817
REMARK INTRA:                  -0.943
REMARK UNBOUND:                -1.039
REMARK  Name = 
REMARK  9 active torsions:
REMARK  status: ('A' for Active; 'I' for Inactive)
REMARK    1  A    between atoms: N_1  and  C_2
REMARK    2  A    between atoms: C_2  and  C_3
REMARK    3  A    between atoms: C_3  and  N_4
REMARK    4  A    between atoms: C_3  and  C_12
REMARK    5  A    between atoms: N_4  and  C_5
REMARK    6  A    between atoms: C_5  and  C_6
REMARK    7  A    between atoms: C_15  and  C_16
REMARK    8  A    between atoms: C_16  and  N_17
REMARK    9  A    between atoms: C_18  and  C_20
REMARK                            x       y       z     vdW  Elec       q    Type
REMARK                         _______ _______ _______ _____ _____    ______ ____
ROOT
ATOM      1  C   UNL     1      45.199   4.787  11.948  0.00  0.00    +0.000 A 
ATOM      2  C   UNL     1      44.427   5.786  11.327  0.00  0.00    +0.000 A 
ATOM      3  C   UNL     1      44.683   7.144  11.547  0.00  0.00    +0.000 A 
ATOM      4  C   UNL     1      45.754   7.541  12.352  0.00  0.00    +0.000 A 
ATOM      5  C   UNL     1      46.527   6.554  12.975  0.00  0.00    +0.000 A 
ATOM      6  C   UNL     1      46.247   5.197  12.785  0.00  0.00    +0.000 A 
ENDROOT
BRANCH   1   7
ATOM      7  C   UNL     1      44.823   3.312  11.756  0.00  0.00    +0.000 C 
BRANCH   7   8
ATOM      8  N   UNL     1      45.533   2.690  10.619  0.00  0.00    +0.000 NA
ATOM      9  H   UNL     1      45.625   1.690  10.779  0.00  0.00    +0.000 HD
BRANCH   8  10
ATOM     10  C   UNL     1      44.898   2.931   9.327  0.00  0.00    +0.000 C 
BRANCH  10  11
ATOM     11  C   UNL     1      45.816   2.642   8.164  0.00  0.00    +0.000 A 
ATOM     12  C   UNL     1      46.430   1.383   8.048  0.00  0.00    +0.000 A 
ATOM     13  C   UNL     1      47.223   1.083   6.939  0.00  0.00    +0.000 A 
ATOM     14  C   UNL     1      47.412   2.036   5.941  0.00  0.00    +0.000 A 
ATOM     15  C   UNL     1      46.820   3.293   6.055  0.00  0.00    +0.000 A 
ATOM     16  C   UNL     1      46.027   3.596   7.162  0.00  0.00    +0.000 A 
ENDBRANCH  10  11
ENDBRANCH   8  10
ENDBRANCH   7   8
BRANCH   7  17
ATOM     17  C   UNL     1      43.269   3.120  11.605  0.00  0.00    +0.000 C 
BRANCH  17  18
ATOM     18  N   UNL     1      42.787   1.733  11.643  0.00  0.00    +0.000 NA
ATOM     19  H   UNL     1      42.615   1.462  12.610  0.00  0.00    +0.000 HD
ATOM     20  H   UNL     1      43.506   1.110  11.283  0.00  0.00    +0.000 HD
ENDBRANCH  17  18
ENDBRANCH   7  17
ENDBRANCH   1   7
BRANCH   4  21
ATOM     21  C   UNL     1      46.066   8.998  12.567  0.00  0.00    +0.000 C 
BRANCH  21  22
ATOM     22  N   UNL     1      47.296   9.389  11.924  0.00  0.00    +0.000 N 
ATOM     23  C   UNL     1      48.387   9.750  12.675  0.00  0.00    +0.000 C 
ATOM     24  O   UNL     1      48.368   9.706  13.903  0.00  0.00    +0.000 OA
ATOM     25  H   UNL     1      47.257   9.638  10.940  0.00  0.00    +0.000 HD
BRANCH  23  26
ATOM     26  C   UNL     1      49.600  10.139  11.947  0.00  0.00    +0.000 A 
ATOM     27  C   UNL     1      50.834   9.664  12.374  0.00  0.00    +0.000 A 
ATOM     28  S   UNL     1      52.141  10.186  11.414  0.00  0.00    +0.000 S 
ATOM     29  C   UNL     1      51.112  11.108  10.421  0.00  0.00    +0.000 A 
ATOM     30  N   UNL     1      51.610  11.853   9.399  0.00  0.00    +0.000 NA
ATOM     31  C   UNL     1      50.723  12.531   8.749  0.00  0.00    +0.000 A 
ATOM     32  N   UNL     1      49.379  12.519   9.024  0.00  0.00    +0.000 N 
ATOM     33  C   UNL     1      48.825  11.749  10.019  0.00  0.00    +0.000 A 
ATOM     34  O   UNL     1      47.610  11.712  10.196  0.00  0.00    +0.000 OA
ATOM     35  C   UNL     1      49.785  10.991  10.798  0.00  0.00    +0.000 A 
ATOM     36  H   UNL     1      48.736  13.057   8.462  0.00  0.00    +0.000 HD
ENDBRANCH  23  26
ENDBRANCH  21  22
ENDBRANCH   4  21
TORSDOF 9
ENDMDL
MODEL 9
REMARK VINA RESULT:    -7.075      3.271      9.108
REMARK INTER + INTRA:         -11.629
REMARK INTER:                  -9.621
REMARK INTRA:                  -2.008
REMARK UNBOUND:                -1.039
REMARK  Name = 
REMARK  9 active torsions:
REMARK  status: ('A' for Active; 'I' for Inactive)
REMARK    1  A    between atoms: N_1  and  C_2
REMARK    2  A    between atoms: C_2  and  C_3
REMARK    3  A    between atoms: C_3  and  N_4
REMARK    4  A    between atoms: C_3  and  C_12
REMARK    5  A    between atoms: N_4  and  C_5
REMARK    6  A    between atoms: C_5  and  C_6
REMARK    7  A    between atoms: C_15  and  C_16
REMARK    8  A    between atoms: C_16  and  N_17
REMARK    9  A    between atoms: C_18  and  C_20
REMARK                            x       y       z     vdW  Elec       q    Type
REMARK                         _______ _______ _______ _____ _____    ______ ____
ROOT
ATOM      1  C   UNL     1      49.059   7.767  16.454  0.00  0.00    +0.000 A 
ATOM      2  C   UNL     1      49.235   6.627  15.647  0.00  0.00    +0.000 A 
ATOM      3  C   UNL     1      48.785   6.598  14.323  0.00  0.00    +0.000 A 
ATOM      4  C   UNL     1      48.196   7.728  13.749  0.00  0.00    +0.000 A 
ATOM      5  C   UNL     1      48.017   8.867  14.544  0.00  0.00    +0.000 A 
ATOM      6  C   UNL     1      48.432   8.883  15.880  0.00  0.00    +0.000 A 
ENDROOT
BRANCH   1   7
ATOM      7  C   UNL     1      49.480   7.723  17.928  0.00  0.00    +0.000 C 
BRANCH   7   8
ATOM      8  N   UNL     1      48.373   7.322  18.821  0.00  0.00    +0.000 NA
ATOM      9  H   UNL     1      47.507   7.266  18.289  0.00  0.00    +0.000 HD
BRANCH   8  10
ATOM     10  C   UNL     1      48.609   6.065  19.523  0.00  0.00    +0.000 C 
BRANCH  10  11
ATOM     11  C   UNL     1      48.500   4.862  18.616  0.00  0.00    +0.000 A 
ATOM     12  C   UNL     1      47.301   4.607  17.928  0.00  0.00    +0.000 A 
ATOM     13  C   UNL     1      47.213   3.539  17.034  0.00  0.00    +0.000 A 
ATOM     14  C   UNL     1      48.318   2.717  16.821  0.00  0.00    +0.000 A 
ATOM     15  C   UNL     1      49.507   2.955  17.509  0.00  0.00    +0.000 A 
ATOM     16  C   UNL     1      49.598   4.021  18.405  0.00  0.00    +0.000 A 
ENDBRANCH  10  11
ENDBRANCH   8  10
ENDBRANCH   7   8
BRANCH   7  17
ATOM     17  C   UNL     1      50.100   9.089  18.400  0.00  0.00    +0.000 C 
BRANCH  17  18
ATOM     18  N   UNL     1      49.289   9.871  19.341  0.00  0.00    +0.000 NA
ATOM     19  H   UNL     1      49.085  10.783  18.935  0.00  0.00    +0.000 HD
ATOM     20  H   UNL     1      49.817  10.037  20.195  0.00  0.00    +0.000 HD
ENDBRANCH  17  18
ENDBRANCH   7  17
ENDBRANCH   1   7
BRANCH   4  21
ATOM     21  C   UNL     1      47.743   7.725  12.315  0.00  0.00    +0.000 C 
BRANCH  21  22
ATOM     22  N   UNL     1      47.026   6.520  11.975  0.00  0.00    +0.000 N 
ATOM     23  C   UNL     1      45.689   6.405  12.264  0.00  0.00    +0.000 C 
ATOM     24  O   UNL     1      45.056   7.328  12.769  0.00  0.00    +0.000 OA
ATOM     25  H   UNL     1      47.571   5.689  11.768  0.00  0.00    +0.000 HD
BRANCH  23  26
ATOM     26  C   UNL     1      45.032   5.147  11.890  0.00  0.00    +0.000 A 
ATOM     27  C   UNL     1      44.339   4.426  12.855  0.00  0.00    +0.000 A 
ATOM     28  S   UNL     1      43.615   3.003  12.261  0.00  0.00    +0.000 S 
ATOM     29  C   UNL     1      44.243   3.270  10.702  0.00  0.00    +0.000 A 
ATOM     30  N   UNL     1      44.022   2.382   9.698  0.00  0.00    +0.000 NA
ATOM     31  C   UNL     1      44.587   2.690   8.578  0.00  0.00    +0.000 A 
ATOM     32  N   UNL     1      45.342   3.816   8.370  0.00  0.00    +0.000 N 
ATOM     33  C   UNL     1      45.557   4.764   9.343  0.00  0.00    +0.000 A 
ATOM     34  O   UNL     1      46.184   5.793   9.105  0.00  0.00    +0.000 OA
ATOM     35  C   UNL     1      44.968   4.448  10.631  0.00  0.00    +0.000 A 
ATOM     36  H   UNL     1      45.738   4.009   7.462  0.00  0.00    +0.000 HD
ENDBRANCH  23  26
ENDBRANCH  21  22
ENDBRANCH   4  21
TORSDOF 9
ENDMDL
