MODEL 1
REMARK VINA RESULT:    -8.780      0.000      0.000
REMARK INTER + INTRA:         -12.357
REMARK INTER:                 -11.346
REMARK INTRA:                  -1.011
REMARK UNBOUND:                -1.011
REMARK  Name = 
REMARK  5 active torsions:
REMARK  status: ('A' for Active; 'I' for Inactive)
REMARK    1  A    between atoms: C_2  and  C_5
REMARK    2  A    between atoms: C_8  and  O_9
REMARK    3  A    between atoms: O_9  and  C_10
REMARK    4  A    between atoms: C_10  and  C_11
REMARK    5  A    between atoms: C_15  and  C_16
REMARK                            x       y       z     vdW  Elec       q    Type
REMARK                         _______ _______ _______ _____ _____    ______ ____
ROOT
ATOM      1  C   UNL     1      43.783   4.879  11.323  0.00  0.00    +0.000 C 
ATOM      2  C   UNL     1      42.524   5.338  12.044  0.00  0.00    +0.000 C 
ATOM      3  C   UNL     1      43.170   6.232  11.036  0.00  0.00    +0.000 C 
ENDROOT
BRANCH   1   4
ATOM      4  C   UNL     1      45.085   4.775  12.101  0.00  0.00    +0.000 A 
ATOM      5  C   UNL     1      45.365   3.725  12.977  0.00  0.00    +0.000 A 
ATOM      6  N   UNL     1      46.486   3.611  13.726  0.00  0.00    +0.000 NA
ATOM      7  C   UNL     1      47.377   4.623  13.637  0.00  0.00    +0.000 A 
ATOM      8  C   UNL     1      47.229   5.748  12.826  0.00  0.00    +0.000 A 
ATOM      9  C   UNL     1      46.062   5.782  12.041  0.00  0.00    +0.000 A 
BRANCH   8  10
ATOM     10  C   UNL     1      48.206   6.853  12.819  0.00  0.00    +0.000 A 
ATOM     11  C   UNL     1      48.448   7.634  11.678  0.00  0.00    +0.000 A 
ATOM     12  C   UNL     1      49.407   8.648  11.701  0.00  0.00    +0.000 A 
ATOM     13  C   UNL     1      50.113   8.860  12.872  0.00  0.00    +0.000 A 
ATOM     14  N   UNL     1      49.916   8.146  13.998  0.00  0.00    +0.000 NA
ATOM     15  C   UNL     1      48.973   7.172  13.943  0.00  0.00    +0.000 A 
ENDBRANCH   8  10
ENDBRANCH   1   4
BRANCH   1  16
ATOM     16  O   UNL     1      43.450   3.781  10.438  0.00  0.00    +0.000 OA
BRANCH  16  20
ATOM     17  C   UNL     1      46.186   2.781   7.563  0.00  0.00    +0.000 A 
ATOM     18  C   UNL     1      45.728   1.807   8.446  0.00  0.00    +0.000 A 
ATOM     19  C   UNL     1      44.791   2.162   9.405  0.00  0.00    +0.000 A 
ATOM     20  C   UNL     1      44.351   3.470   9.444  0.00  0.00    +0.000 A 
ATOM     21  N   UNL     1      44.774   4.398   8.564  0.00  0.00    +0.000 NA
ATOM     22  N   UNL     1      45.705   4.050   7.618  0.00  0.00    +0.000 NA
BRANCH  17  24
ATOM     23  F   UNL     1      47.037   3.081   5.339  0.00  0.00    +0.000 F 
ATOM     24  C   UNL     1      47.250   2.462   6.540  0.00  0.00    +0.000 C 
ATOM     25  F   UNL     1      47.328   1.133   6.246  0.00  0.00    +0.000 F 
ATOM     26  F   UNL     1      48.502   2.842   6.922  0.00  0.00    +0.000 F 
ENDBRANCH  17  24
ENDBRANCH  16  20
ENDBRANCH   1  16
TORSDOF 5
ENDMDL
MODEL 2
REMARK VINA RESULT:    -8.413      4.422      7.333
REMARK INTER + INTRA:         -11.884
REMARK INTER:                 -11.086
REMARK INTRA:                  -0.797
REMARK UNBOUND:                -1.011
REMARK  Name = 
REMARK  5 active torsions:
REMARK  status: ('A' for Active; 'I' for Inactive)
REMARK    1  A    between atoms: C_2  and  C_5
REMARK    2  A    between atoms: C_8  and  O_9
REMARK    3  A    between atoms: O_9  and  C_10
REMARK    4  A    between atoms: C_10  and  C_11
REMARK    5  A    between atoms: C_15  and  C_16
REMARK                            x       y       z     vdW  Elec       q    Type
REMARK                         _______ _______ _______ _____ _____    ______ ____
ROOT
ATOM      1  C   UNL     1      45.303   5.490  11.898  0.00  0.00    +0.000 C 
ATOM      2  C   UNL     1      44.794   6.887  11.574  0.00  0.00    +0.000 C 
ATOM      3  C   UNL     1      44.244   6.152  12.752  0.00  0.00    +0.000 C 
ENDROOT
BRANCH   1   4
ATOM      4  C   UNL     1      44.938   4.337  10.978  0.00  0.00    +0.000 A 
ATOM      5  C   UNL     1      43.936   3.414  11.280  0.00  0.00    +0.000 A 
ATOM      6  N   UNL     1      43.604   2.344  10.518  0.00  0.00    +0.000 NA
ATOM      7  C   UNL     1      44.337   2.149   9.401  0.00  0.00    +0.000 A 
ATOM      8  C   UNL     1      45.383   2.969   8.979  0.00  0.00    +0.000 A 
ATOM      9  C   UNL     1      45.647   4.086   9.792  0.00  0.00    +0.000 A 
BRANCH   8  10
ATOM     10  C   UNL     1      46.191   2.669   7.781  0.00  0.00    +0.000 A 
ATOM     11  C   UNL     1      46.231   3.523   6.668  0.00  0.00    +0.000 A 
ATOM     12  C   UNL     1      46.981   3.185   5.540  0.00  0.00    +0.000 A 
ATOM     13  C   UNL     1      47.677   1.990   5.546  0.00  0.00    +0.000 A 
ATOM     14  N   UNL     1      47.682   1.138   6.589  0.00  0.00    +0.000 NA
ATOM     15  C   UNL     1      46.948   1.498   7.671  0.00  0.00    +0.000 A 
ENDBRANCH   8  10
ENDBRANCH   1   4
BRANCH   1  16
ATOM     16  O   UNL     1      46.682   5.577  12.337  0.00  0.00    +0.000 OA
BRANCH  16  20
ATOM     17  C   UNL     1      47.770   3.746  15.832  0.00  0.00    +0.000 A 
ATOM     18  C   UNL     1      47.735   5.136  15.765  0.00  0.00    +0.000 A 
ATOM     19  C   UNL     1      47.352   5.738  14.575  0.00  0.00    +0.000 A 
ATOM     20  C   UNL     1      47.019   4.932  13.506  0.00  0.00    +0.000 A 
ATOM     21  N   UNL     1      47.022   3.588  13.590  0.00  0.00    +0.000 NA
ATOM     22  N   UNL     1      47.407   2.989  14.764  0.00  0.00    +0.000 NA
BRANCH  17  24
ATOM     23  F   UNL     1      47.222   2.423  17.759  0.00  0.00    +0.000 F 
ATOM     24  C   UNL     1      48.238   3.041  17.083  0.00  0.00    +0.000 C 
ATOM     25  F   UNL     1      48.808   3.884  17.990  0.00  0.00    +0.000 F 
ATOM     26  F   UNL     1      49.156   2.062  16.843  0.00  0.00    +0.000 F 
ENDBRANCH  17  24
ENDBRANCH  16  20
ENDBRANCH   1  16
TORSDOF 5
ENDMDL
MODEL 3
REMARK VINA RESULT:    -7.973      4.216      7.269
REMARK INTER + INTRA:         -11.315
REMARK INTER:                 -10.497
REMARK INTRA:                  -0.818
REMARK UNBOUND:                -1.011
REMARK  Name = 
REMARK  5 active torsions:
REMARK  status: ('A' for Active; 'I' for Inactive)
REMARK    1  A    between atoms: C_2  and  C_5
REMARK    2  A    between atoms: C_8  and  O_9
REMARK    3  A    between atoms: O_9  and  C_10
REMARK    4  A    between atoms: C_10  and  C_11
REMARK    5  A    between atoms: C_15  and  C_16
REMARK                            x       y       z     vdW  Elec       q    Type
REMARK                         _______ _______ _______ _____ _____    ______ ____
ROOT
ATOM      1  C   UNL     1      46.158   7.003  12.137  0.00  0.00    +0.000 C 
ATOM      2  C   UNL     1      46.264   8.482  11.792  0.00  0.00    +0.000 C 
ATOM      3  C   UNL     1      45.504   8.056  13.004  0.00  0.00    +0.000 C 
ENDROOT
BRANCH   1   4
ATOM      4  C   UNL     1      45.311   6.097  11.258  0.00  0.00    +0.000 A 
ATOM      5  C   UNL     1      43.932   5.956  11.420  0.00  0.00    +0.000 A 
ATOM      6  N   UNL     1      43.141   5.129  10.696  0.00  0.00    +0.000 NA
ATOM      7  C   UNL     1      43.758   4.358   9.775  0.00  0.00    +0.000 A 
ATOM      8  C   UNL     1      45.128   4.369   9.513  0.00  0.00    +0.000 A 
ATOM      9  C   UNL     1      45.885   5.281  10.270  0.00  0.00    +0.000 A 
BRANCH   8  10
ATOM     10  C   UNL     1      45.755   3.456   8.538  0.00  0.00    +0.000 A 
ATOM     11  C   UNL     1      46.306   3.911   7.330  0.00  0.00    +0.000 A 
ATOM     12  C   UNL     1      46.859   3.011   6.418  0.00  0.00    +0.000 A 
ATOM     13  C   UNL     1      46.845   1.663   6.732  0.00  0.00    +0.000 A 
ATOM     14  N   UNL     1      46.338   1.173   7.879  0.00  0.00    +0.000 NA
ATOM     15  C   UNL     1      45.813   2.075   8.746  0.00  0.00    +0.000 A 
ENDBRANCH   8  10
ENDBRANCH   1   4
BRANCH   1  16
ATOM     16  O   UNL     1      47.463   6.513  12.532  0.00  0.00    +0.000 OA
BRANCH  16  20
ATOM     17  C   UNL     1      47.744   4.057  15.794  0.00  0.00    +0.000 A 
ATOM     18  C   UNL     1      48.094   5.399  15.911  0.00  0.00    +0.000 A 
ATOM     19  C   UNL     1      47.981   6.219  14.797  0.00  0.00    +0.000 A 
ATOM     20  C   UNL     1      47.522   5.668  13.618  0.00  0.00    +0.000 A 
ATOM     21  N   UNL     1      47.153   4.376  13.523  0.00  0.00    +0.000 NA
ATOM     22  N   UNL     1      47.271   3.562  14.622  0.00  0.00    +0.000 NA
BRANCH  17  24
ATOM     23  F   UNL     1      48.663   3.633  17.971  0.00  0.00    +0.000 F 
ATOM     24  C   UNL     1      47.907   3.109  16.959  0.00  0.00    +0.000 C 
ATOM     25  F   UNL     1      48.529   1.945  16.617  0.00  0.00    +0.000 F 
ATOM     26  F   UNL     1      46.726   2.754  17.539  0.00  0.00    +0.000 F 
ENDBRANCH  17  24
ENDBRANCH  16  20
ENDBRANCH   1  16
TORSDOF 5
ENDMDL
MODEL 4
REMARK VINA RESULT:    -7.939      1.384      1.723
REMARK INTER + INTRA:         -11.271
REMARK INTER:                 -11.364
REMARK INTRA:                   0.093
REMARK UNBOUND:                -1.011
REMARK  Name = 
REMARK  5 active torsions:
REMARK  status: ('A' for Active; 'I' for Inactive)
REMARK    1  A    between atoms: C_2  and  C_5
REMARK    2  A    between atoms: C_8  and  O_9
REMARK    3  A    between atoms: O_9  and  C_10
REMARK    4  A    between atoms: C_10  and  C_11
REMARK    5  A    between atoms: C_15  and  C_16
REMARK                            x       y       z     vdW  Elec       q    Type
REMARK                         _______ _______ _______ _____ _____    ______ ____
ROOT
ATOM      1  C   UNL     1      44.063   4.693  11.864  0.00  0.00    +0.000 C 
ATOM      2  C   UNL     1      43.505   3.402  12.444  0.00  0.00    +0.000 C 
ATOM      3  C   UNL     1      42.931   4.713  12.867  0.00  0.00    +0.000 C 
ENDROOT
BRANCH   1   4
ATOM      4  C   UNL     1      45.456   5.146  12.269  0.00  0.00    +0.000 A 
ATOM      5  C   UNL     1      46.301   4.377  13.069  0.00  0.00    +0.000 A 
ATOM      6  N   UNL     1      47.530   4.753  13.495  0.00  0.00    +0.000 NA
ATOM      7  C   UNL     1      47.938   5.991  13.140  0.00  0.00    +0.000 A 
ATOM      8  C   UNL     1      47.199   6.884  12.365  0.00  0.00    +0.000 A 
ATOM      9  C   UNL     1      45.951   6.413  11.919  0.00  0.00    +0.000 A 
BRANCH   8  10
ATOM     10  C   UNL     1      47.670   8.249  12.063  0.00  0.00    +0.000 A 
ATOM     11  C   UNL     1      48.980   8.514  11.634  0.00  0.00    +0.000 A 
ATOM     12  C   UNL     1      49.397   9.824  11.393  0.00  0.00    +0.000 A 
ATOM     13  C   UNL     1      48.492  10.851  11.591  0.00  0.00    +0.000 A 
ATOM     14  N   UNL     1      47.221  10.654  11.994  0.00  0.00    +0.000 NA
ATOM     15  C   UNL     1      46.846   9.369  12.214  0.00  0.00    +0.000 A 
ENDBRANCH   8  10
ENDBRANCH   1   4
BRANCH   1  16
ATOM     16  O   UNL     1      43.724   4.766  10.456  0.00  0.00    +0.000 OA
BRANCH  16  20
ATOM     17  C   UNL     1      46.253   2.813   7.900  0.00  0.00    +0.000 A 
ATOM     18  C   UNL     1      45.443   2.079   8.762  0.00  0.00    +0.000 A 
ATOM     19  C   UNL     1      44.584   2.759   9.612  0.00  0.00    +0.000 A 
ATOM     20  C   UNL     1      44.566   4.138   9.567  0.00  0.00    +0.000 A 
ATOM     21  N   UNL     1      45.328   4.839   8.705  0.00  0.00    +0.000 NA
ATOM     22  N   UNL     1      46.184   4.169   7.867  0.00  0.00    +0.000 NA
BRANCH  17  24
ATOM     23  F   UNL     1      48.437   2.799   6.903  0.00  0.00    +0.000 F 
ATOM     24  C   UNL     1      47.250   2.125   6.997  0.00  0.00    +0.000 C 
ATOM     25  F   UNL     1      46.810   1.998   5.713  0.00  0.00    +0.000 F 
ATOM     26  F   UNL     1      47.582   0.870   7.413  0.00  0.00    +0.000 F 
ENDBRANCH  17  24
ENDBRANCH  16  20
ENDBRANCH   1  16
TORSDOF 5
ENDMDL
MODEL 5
REMARK VINA RESULT:    -7.305      2.684      3.537
REMARK INTER + INTRA:         -10.452
REMARK INTER:                 -10.585
REMARK INTRA:                   0.133
REMARK UNBOUND:                -1.011
REMARK  Name = 
REMARK  5 active torsions:
REMARK  status: ('A' for Active; 'I' for Inactive)
REMARK    1  A    between atoms: C_2  and  C_5
REMARK    2  A    between atoms: C_8  and  O_9
REMARK    3  A    between atoms: O_9  and  C_10
REMARK    4  A    between atoms: C_10  and  C_11
REMARK    5  A    between atoms: C_15  and  C_16
REMARK                            x       y       z     vdW  Elec       q    Type
REMARK                         _______ _______ _______ _____ _____    ______ ____
ROOT
ATOM      1  C   UNL     1      44.073   4.351  11.740  0.00  0.00    +0.000 C 
ATOM      2  C   UNL     1      44.472   3.132  12.559  0.00  0.00    +0.000 C 
ATOM      3  C   UNL     1      43.292   3.950  12.972  0.00  0.00    +0.000 C 
ENDROOT
BRANCH   1   4
ATOM      4  C   UNL     1      44.965   5.583  11.763  0.00  0.00    +0.000 A 
ATOM      5  C   UNL     1      46.318   5.533  12.096  0.00  0.00    +0.000 A 
ATOM      6  N   UNL     1      47.142   6.604  12.177  0.00  0.00    +0.000 NA
ATOM      7  C   UNL     1      46.584   7.813  11.952  0.00  0.00    +0.000 A 
ATOM      8  C   UNL     1      45.243   8.026  11.632  0.00  0.00    +0.000 A 
ATOM      9  C   UNL     1      44.453   6.868  11.522  0.00  0.00    +0.000 A 
BRANCH   8  10
ATOM     10  C   UNL     1      44.675   9.377  11.461  0.00  0.00    +0.000 A 
ATOM     11  C   UNL     1      43.469   9.604  10.779  0.00  0.00    +0.000 A 
ATOM     12  C   UNL     1      42.983  10.901  10.608  0.00  0.00    +0.000 A 
ATOM     13  C   UNL     1      43.719  11.953  11.123  0.00  0.00    +0.000 A 
ATOM     14  N   UNL     1      44.876  11.793  11.793  0.00  0.00    +0.000 NA
ATOM     15  C   UNL     1      45.318  10.520  11.946  0.00  0.00    +0.000 A 
ENDBRANCH   8  10
ENDBRANCH   1   4
BRANCH   1  16
ATOM     16  O   UNL     1      43.578   3.915  10.450  0.00  0.00    +0.000 OA
BRANCH  16  20
ATOM     17  C   UNL     1      46.269   2.576   7.672  0.00  0.00    +0.000 A 
ATOM     18  C   UNL     1      45.933   3.926   7.710  0.00  0.00    +0.000 A 
ATOM     19  C   UNL     1      45.028   4.363   8.666  0.00  0.00    +0.000 A 
ATOM     20  C   UNL     1      44.500   3.438   9.544  0.00  0.00    +0.000 A 
ATOM     21  N   UNL     1      44.857   2.140   9.522  0.00  0.00    +0.000 NA
ATOM     22  N   UNL     1      45.747   1.704   8.572  0.00  0.00    +0.000 NA
BRANCH  17  24
ATOM     23  F   UNL     1      47.060   0.692   6.411  0.00  0.00    +0.000 F 
ATOM     24  C   UNL     1      47.201   2.038   6.612  0.00  0.00    +0.000 C 
ATOM     25  F   UNL     1      48.518   2.216   6.918  0.00  0.00    +0.000 F 
ATOM     26  F   UNL     1      47.015   2.605   5.386  0.00  0.00    +0.000 F 
ENDBRANCH  17  24
ENDBRANCH  16  20
ENDBRANCH   1  16
TORSDOF 5
ENDMDL
MODEL 6
REMARK VINA RESULT:    -6.903      1.473      2.110
REMARK INTER + INTRA:          -9.933
REMARK INTER:                 -10.432
REMARK INTRA:                   0.499
REMARK UNBOUND:                -1.011
REMARK  Name = 
REMARK  5 active torsions:
REMARK  status: ('A' for Active; 'I' for Inactive)
REMARK    1  A    between atoms: C_2  and  C_5
REMARK    2  A    between atoms: C_8  and  O_9
REMARK    3  A    between atoms: O_9  and  C_10
REMARK    4  A    between atoms: C_10  and  C_11
REMARK    5  A    between atoms: C_15  and  C_16
REMARK                            x       y       z     vdW  Elec       q    Type
REMARK                         _______ _______ _______ _____ _____    ______ ____
ROOT
ATOM      1  C   UNL     1      44.631   4.993  11.825  0.00  0.00    +0.000 C 
ATOM      2  C   UNL     1      45.442   3.799  12.309  0.00  0.00    +0.000 C 
ATOM      3  C   UNL     1      44.251   4.251  13.088  0.00  0.00    +0.000 C 
ENDROOT
BRANCH   1   4
ATOM      4  C   UNL     1      45.240   6.383  11.906  0.00  0.00    +0.000 A 
ATOM      5  C   UNL     1      44.517   7.545  11.634  0.00  0.00    +0.000 A 
ATOM      6  N   UNL     1      45.024   8.801  11.646  0.00  0.00    +0.000 NA
ATOM      7  C   UNL     1      46.344   8.916  11.905  0.00  0.00    +0.000 A 
ATOM      8  C   UNL     1      47.202   7.849  12.172  0.00  0.00    +0.000 A 
ATOM      9  C   UNL     1      46.602   6.577  12.187  0.00  0.00    +0.000 A 
BRANCH   8  10
ATOM     10  C   UNL     1      48.650   8.031  12.384  0.00  0.00    +0.000 A 
ATOM     11  C   UNL     1      49.577   7.971  11.331  0.00  0.00    +0.000 A 
ATOM     12  C   UNL     1      50.943   8.114  11.578  0.00  0.00    +0.000 A 
ATOM     13  C   UNL     1      51.359   8.310  12.883  0.00  0.00    +0.000 A 
ATOM     14  N   UNL     1      50.514   8.384  13.929  0.00  0.00    +0.000 NA
ATOM     15  C   UNL     1      49.193   8.247  13.654  0.00  0.00    +0.000 A 
ENDBRANCH   8  10
ENDBRANCH   1   4
BRANCH   1  16
ATOM     16  O   UNL     1      43.949   4.637  10.597  0.00  0.00    +0.000 OA
BRANCH  16  20
ATOM     17  C   UNL     1      46.233   2.950   7.651  0.00  0.00    +0.000 A 
ATOM     18  C   UNL     1      45.452   2.137   8.466  0.00  0.00    +0.000 A 
ATOM     19  C   UNL     1      44.675   2.728   9.451  0.00  0.00    +0.000 A 
ATOM     20  C   UNL     1      44.708   4.102   9.581  0.00  0.00    +0.000 A 
ATOM     21  N   UNL     1      45.440   4.884   8.765  0.00  0.00    +0.000 NA
ATOM     22  N   UNL     1      46.215   4.300   7.793  0.00  0.00    +0.000 NA
BRANCH  17  24
ATOM     23  F   UNL     1      46.902   2.838   5.348  0.00  0.00    +0.000 F 
ATOM     24  C   UNL     1      47.144   2.353   6.604  0.00  0.00    +0.000 C 
ATOM     25  F   UNL     1      47.017   1.000   6.494  0.00  0.00    +0.000 F 
ATOM     26  F   UNL     1      48.466   2.595   6.833  0.00  0.00    +0.000 F 
ENDBRANCH  17  24
ENDBRANCH  16  20
ENDBRANCH   1  16
TORSDOF 5
ENDMDL
MODEL 7
REMARK VINA RESULT:    -6.831      4.677      7.874
REMARK INTER + INTRA:          -9.839
REMARK INTER:                  -9.029
REMARK INTRA:                  -0.811
REMARK UNBOUND:                -1.011
REMARK  Name = 
REMARK  5 active torsions:
REMARK  status: ('A' for Active; 'I' for Inactive)
REMARK    1  A    between atoms: C_2  and  C_5
REMARK    2  A    between atoms: C_8  and  O_9
REMARK    3  A    between atoms: O_9  and  C_10
REMARK    4  A    between atoms: C_10  and  C_11
REMARK    5  A    between atoms: C_15  and  C_16
REMARK                            x       y       z     vdW  Elec       q    Type
REMARK                         _______ _______ _______ _____ _____    ______ ____
ROOT
ATOM      1  C   UNL     1      48.494   7.994  12.570  0.00  0.00    +0.000 C 
ATOM      2  C   UNL     1      49.421   8.838  11.707  0.00  0.00    +0.000 C 
ATOM      3  C   UNL     1      48.892   9.393  12.988  0.00  0.00    +0.000 C 
ENDROOT
BRANCH   1   4
ATOM      4  C   UNL     1      47.082   7.711  12.082  0.00  0.00    +0.000 A 
ATOM      5  C   UNL     1      45.992   8.521  12.401  0.00  0.00    +0.000 A 
ATOM      6  N   UNL     1      44.711   8.288  12.032  0.00  0.00    +0.000 NA
ATOM      7  C   UNL     1      44.482   7.155  11.332  0.00  0.00    +0.000 A 
ATOM      8  C   UNL     1      45.462   6.236  10.958  0.00  0.00    +0.000 A 
ATOM      9  C   UNL     1      46.776   6.561  11.336  0.00  0.00    +0.000 A 
BRANCH   8  10
ATOM     10  C   UNL     1      45.142   4.982  10.249  0.00  0.00    +0.000 A 
ATOM     11  C   UNL     1      45.563   4.735   8.933  0.00  0.00    +0.000 A 
ATOM     12  C   UNL     1      45.209   3.551   8.284  0.00  0.00    +0.000 A 
ATOM     13  C   UNL     1      44.433   2.632   8.968  0.00  0.00    +0.000 A 
ATOM     14  N   UNL     1      44.009   2.814  10.233  0.00  0.00    +0.000 NA
ATOM     15  C   UNL     1      44.374   3.973  10.836  0.00  0.00    +0.000 A 
ENDBRANCH   8  10
ENDBRANCH   1   4
BRANCH   1  16
ATOM     16  O   UNL     1      49.241   6.882  13.122  0.00  0.00    +0.000 OA
BRANCH  16  20
ATOM     17  C   UNL     1      47.953   5.216  16.631  0.00  0.00    +0.000 A 
ATOM     18  C   UNL     1      48.795   6.324  16.663  0.00  0.00    +0.000 A 
ATOM     19  C   UNL     1      49.211   6.882  15.464  0.00  0.00    +0.000 A 
ATOM     20  C   UNL     1      48.770   6.315  14.285  0.00  0.00    +0.000 A 
ATOM     21  N   UNL     1      47.928   5.264  14.263  0.00  0.00    +0.000 NA
ATOM     22  N   UNL     1      47.520   4.706  15.450  0.00  0.00    +0.000 NA
BRANCH  17  24
ATOM     23  F   UNL     1      47.058   3.262  17.701  0.00  0.00    +0.000 F 
ATOM     24  C   UNL     1      47.520   4.533  17.907  0.00  0.00    +0.000 C 
ATOM     25  F   UNL     1      46.504   5.183  18.543  0.00  0.00    +0.000 F 
ATOM     26  F   UNL     1      48.523   4.406  18.822  0.00  0.00    +0.000 F 
ENDBRANCH  17  24
ENDBRANCH  16  20
ENDBRANCH   1  16
TORSDOF 5
ENDMDL
MODEL 8
REMARK VINA RESULT:    -6.115      5.133      7.072
REMARK INTER + INTRA:          -8.914
REMARK INTER:                  -8.166
REMARK INTRA:                  -0.749
REMARK UNBOUND:                -1.011
REMARK  Name = 
REMARK  5 active torsions:
REMARK  status: ('A' for Active; 'I' for Inactive)
REMARK    1  A    between atoms: C_2  and  C_5
REMARK    2  A    between atoms: C_8  and  O_9
REMARK    3  A    between atoms: O_9  and  C_10
REMARK    4  A    between atoms: C_10  and  C_11
REMARK    5  A    between atoms: C_15  and  C_16
REMARK                            x       y       z     vdW  Elec       q    Type
REMARK                         _______ _______ _______ _____ _____    ______ ____
ROOT
ATOM      1  C   UNL     1      47.950   4.189  16.313  0.00  0.00    +0.000 C 
ATOM      2  C   UNL     1      48.376   2.939  17.070  0.00  0.00    +0.000 C 
ATOM      3  C   UNL     1      46.944   3.362  17.083  0.00  0.00    +0.000 C 
ENDROOT
BRANCH   1   4
ATOM      4  C   UNL     1      48.382   5.551  16.831  0.00  0.00    +0.000 A 
ATOM      5  C   UNL     1      49.356   6.328  16.203  0.00  0.00    +0.000 A 
ATOM      6  N   UNL     1      49.809   7.524  16.649  0.00  0.00    +0.000 NA
ATOM      7  C   UNL     1      49.293   7.967  17.817  0.00  0.00    +0.000 A 
ATOM      8  C   UNL     1      48.332   7.294  18.571  0.00  0.00    +0.000 A 
ATOM      9  C   UNL     1      47.874   6.080  18.029  0.00  0.00    +0.000 A 
BRANCH   8  10
ATOM     10  C   UNL     1      47.853   7.797  19.873  0.00  0.00    +0.000 A 
ATOM     11  C   UNL     1      47.871   7.009  21.035  0.00  0.00    +0.000 A 
ATOM     12  C   UNL     1      47.377   7.510  22.240  0.00  0.00    +0.000 A 
ATOM     13  C   UNL     1      46.866   8.796  22.259  0.00  0.00    +0.000 A 
ATOM     14  N   UNL     1      46.832   9.597  21.177  0.00  0.00    +0.000 NA
ATOM     15  C   UNL     1      47.325   9.083  20.023  0.00  0.00    +0.000 A 
ENDBRANCH   8  10
ENDBRANCH   1   4
BRANCH   1  16
ATOM     16  O   UNL     1      48.079   3.949  14.890  0.00  0.00    +0.000 OA
BRANCH  16  20
ATOM     17  C   UNL     1      44.690   4.507  12.665  0.00  0.00    +0.000 A 
ATOM     18  C   UNL     1      45.304   5.600  13.270  0.00  0.00    +0.000 A 
ATOM     19  C   UNL     1      46.459   5.392  14.010  0.00  0.00    +0.000 A 
ATOM     20  C   UNL     1      46.953   4.108  14.114  0.00  0.00    +0.000 A 
ATOM     21  N   UNL     1      46.371   3.061  13.497  0.00  0.00    +0.000 NA
ATOM     22  N   UNL     1      45.224   3.263  12.770  0.00  0.00    +0.000 NA
BRANCH  17  24
ATOM     23  F   UNL     1      42.955   3.498  11.347  0.00  0.00    +0.000 F 
ATOM     24  C   UNL     1      43.397   4.668  11.900  0.00  0.00    +0.000 C 
ATOM     25  F   UNL     1      43.500   5.539  10.856  0.00  0.00    +0.000 F 
ATOM     26  F   UNL     1      42.364   5.114  12.669  0.00  0.00    +0.000 F 
ENDBRANCH  17  24
ENDBRANCH  16  20
ENDBRANCH   1  16
TORSDOF 5
ENDMDL
MODEL 9
REMARK VINA RESULT:    -5.906      3.898      6.138
REMARK INTER + INTRA:          -8.643
REMARK INTER:                  -7.845
REMARK INTRA:                  -0.799
REMARK UNBOUND:                -1.011
REMARK  Name = 
REMARK  5 active torsions:
REMARK  status: ('A' for Active; 'I' for Inactive)
REMARK    1  A    between atoms: C_2  and  C_5
REMARK    2  A    between atoms: C_8  and  O_9
REMARK    3  A    between atoms: O_9  and  C_10
REMARK    4  A    between atoms: C_10  and  C_11
REMARK    5  A    between atoms: C_15  and  C_16
REMARK                            x       y       z     vdW  Elec       q    Type
REMARK                         _______ _______ _______ _____ _____    ______ ____
ROOT
ATOM      1  C   UNL     1      48.575   8.205  12.521  0.00  0.00    +0.000 C 
ATOM      2  C   UNL     1      49.649   9.041  11.839  0.00  0.00    +0.000 C 
ATOM      3  C   UNL     1      49.649   7.557  11.675  0.00  0.00    +0.000 C 
ENDROOT
BRANCH   1   4
ATOM      4  C   UNL     1      48.599   8.061  14.034  0.00  0.00    +0.000 A 
ATOM      5  C   UNL     1      48.746   9.147  14.897  0.00  0.00    +0.000 A 
ATOM      6  N   UNL     1      48.820   9.068  16.247  0.00  0.00    +0.000 NA
ATOM      7  C   UNL     1      48.785   7.827  16.781  0.00  0.00    +0.000 A 
ATOM      8  C   UNL     1      48.664   6.646  16.049  0.00  0.00    +0.000 A 
ATOM      9  C   UNL     1      48.549   6.803  14.656  0.00  0.00    +0.000 A 
BRANCH   8  10
ATOM     10  C   UNL     1      48.697   5.315  16.684  0.00  0.00    +0.000 A 
ATOM     11  C   UNL     1      47.630   4.409  16.584  0.00  0.00    +0.000 A 
ATOM     12  C   UNL     1      47.685   3.172  17.228  0.00  0.00    +0.000 A 
ATOM     13  C   UNL     1      48.813   2.865  17.969  0.00  0.00    +0.000 A 
ATOM     14  N   UNL     1      49.868   3.692  18.091  0.00  0.00    +0.000 NA
ATOM     15  C   UNL     1      49.785   4.884  17.449  0.00  0.00    +0.000 A 
ENDBRANCH   8  10
ENDBRANCH   1   4
BRANCH   1  16
ATOM     16  O   UNL     1      47.295   8.480  11.900  0.00  0.00    +0.000 OA
BRANCH  16  20
ATOM     17  C   UNL     1      44.437   5.551  11.969  0.00  0.00    +0.000 A 
ATOM     18  C   UNL     1      45.467   5.486  11.035  0.00  0.00    +0.000 A 
ATOM     19  C   UNL     1      46.433   6.482  11.035  0.00  0.00    +0.000 A 
ATOM     20  C   UNL     1      46.333   7.497  11.965  0.00  0.00    +0.000 A 
ATOM     21  N   UNL     1      45.352   7.533  12.888  0.00  0.00    +0.000 NA
ATOM     22  N   UNL     1      44.391   6.553  12.885  0.00  0.00    +0.000 NA
BRANCH  17  24
ATOM     23  F   UNL     1      42.081   5.092  11.946  0.00  0.00    +0.000 F 
ATOM     24  C   UNL     1      43.326   4.527  11.972  0.00  0.00    +0.000 C 
ATOM     25  F   UNL     1      43.335   3.733  13.080  0.00  0.00    +0.000 F 
ATOM     26  F   UNL     1      43.361   3.686  10.900  0.00  0.00    +0.000 F 
ENDBRANCH  17  24
ENDBRANCH  16  20
ENDBRANCH   1  16
TORSDOF 5
ENDMDL
