MODEL 1
REMARK VINA RESULT:    -8.929      0.000      0.000
REMARK INTER + INTRA:         -11.609
REMARK INTER:                 -11.539
REMARK INTRA:                  -0.069
REMARK UNBOUND:                -0.069
REMARK  Name = 
REMARK  5 active torsions:
REMARK  status: ('A' for Active; 'I' for Inactive)
REMARK    1  A    between atoms: C_2  and  C_4
REMARK    2  A    between atoms: C_8  and  O_9
REMARK    3  A    between atoms: O_9  and  C_10
REMARK    4  A    between atoms: C_10  and  C_11
REMARK    5  A    between atoms: C_16  and  C_17
REMARK                            x       y       z     vdW  Elec       q    Type
REMARK                         _______ _______ _______ _____ _____    ______ ____
ROOT
ATOM      1  C   UNL     1      44.715   4.632  11.824  0.00  0.00    +0.000 A 
ATOM      2  C   UNL     1      45.283   3.625  12.596  0.00  0.00    +0.000 A 
ATOM      3  F   UNL     1      44.796   2.377  12.525  0.00  0.00    +0.000 F 
ATOM      4  C   UNL     1      46.352   3.882  13.450  0.00  0.00    +0.000 A 
ATOM      5  C   UNL     1      46.926   5.155  13.492  0.00  0.00    +0.000 A 
ATOM      6  C   UNL     1      46.453   6.162  12.644  0.00  0.00    +0.000 A 
ATOM      7  C   UNL     1      45.308   5.894  11.867  0.00  0.00    +0.000 A 
ATOM      8  F   UNL     1      44.790   6.875  11.110  0.00  0.00    +0.000 F 
ENDROOT
BRANCH   6   9
ATOM      9  C   UNL     1      47.224   7.448  12.365  0.00  0.00    +0.000 C 
ATOM     10  C   UNL     1      48.724   7.190  12.635  0.00  0.00    +0.000 C 
ATOM     11  C   UNL     1      49.113   7.405  14.098  0.00  0.00    +0.000 C 
ATOM     12  C   UNL     1      48.624   8.752  14.614  0.00  0.00    +0.000 C 
ATOM     13  N   UNL     1      47.175   8.885  14.465  0.00  0.00    +0.000 NA
ATOM     14  C   UNL     1      46.763   8.748  13.062  0.00  0.00    +0.000 C 
ATOM     15  H   UNL     1      46.894   9.807  14.803  0.00  0.00    +0.000 HD
ENDBRANCH   6   9
BRANCH   1  16
ATOM     16  C   UNL     1      43.535   4.361  10.941  0.00  0.00    +0.000 C 
BRANCH  16  17
ATOM     17  O   UNL     1      43.736   3.143  10.218  0.00  0.00    +0.000 OA
BRANCH  17  22
ATOM     18  C   UNL     1      46.401   2.231   7.806  0.00  0.00    +0.000 A 
ATOM     19  C   UNL     1      46.655   3.513   7.342  0.00  0.00    +0.000 A 
ATOM     20  N   UNL     1      45.977   4.605   7.768  0.00  0.00    +0.000 NA
ATOM     21  C   UNL     1      45.026   4.399   8.713  0.00  0.00    +0.000 A 
ATOM     22  C   UNL     1      44.713   3.161   9.260  0.00  0.00    +0.000 A 
ATOM     23  C   UNL     1      45.420   2.055   8.789  0.00  0.00    +0.000 A 
BRANCH  18  25
ATOM     24  N   UNL     1      46.780  -0.158   7.629  0.00  0.00    +0.000 N 
ATOM     25  C   UNL     1      47.183   1.102   7.263  0.00  0.00    +0.000 C 
ATOM     26  O   UNL     1      48.116   1.269   6.501  0.00  0.00    +0.000 OA
ATOM     27  H   UNL     1      47.255  -0.921   7.168  0.00  0.00    +0.000 HD
ATOM     28  H   UNL     1      45.864  -0.349   8.017  0.00  0.00    +0.000 HD
ENDBRANCH  18  25
ENDBRANCH  17  22
ENDBRANCH  16  17
ENDBRANCH   1  16
TORSDOF 5
ENDMDL
MODEL 2
REMARK VINA RESULT:    -8.716      1.232      1.653
REMARK INTER + INTRA:         -11.333
REMARK INTER:                 -10.549
REMARK INTRA:                  -0.784
REMARK UNBOUND:                -0.069
REMARK  Name = 
REMARK  5 active torsions:
REMARK  status: ('A' for Active; 'I' for Inactive)
REMARK    1  A    between atoms: C_2  and  C_4
REMARK    2  A    between atoms: C_8  and  O_9
REMARK    3  A    between atoms: O_9  and  C_10
REMARK    4  A    between atoms: C_10  and  C_11
REMARK    5  A    between atoms: C_16  and  C_17
REMARK                            x       y       z     vdW  Elec       q    Type
REMARK                         _______ _______ _______ _____ _____    ______ ____
ROOT
ATOM      1  C   UNL     1      44.931   5.014  11.780  0.00  0.00    +0.000 A 
ATOM      2  C   UNL     1      45.477   4.055  12.626  0.00  0.00    +0.000 A 
ATOM      3  F   UNL     1      45.074   2.779  12.535  0.00  0.00    +0.000 F 
ATOM      4  C   UNL     1      46.440   4.390  13.574  0.00  0.00    +0.000 A 
ATOM      5  C   UNL     1      46.932   5.695  13.644  0.00  0.00    +0.000 A 
ATOM      6  C   UNL     1      46.488   6.659  12.733  0.00  0.00    +0.000 A 
ATOM      7  C   UNL     1      45.443   6.310  11.853  0.00  0.00    +0.000 A 
ATOM      8  F   UNL     1      44.946   7.245  11.028  0.00  0.00    +0.000 F 
ENDROOT
BRANCH   6   9
ATOM      9  C   UNL     1      47.206   7.983  12.502  0.00  0.00    +0.000 C 
ATOM     10  C   UNL     1      48.370   7.746  11.513  0.00  0.00    +0.000 C 
ATOM     11  C   UNL     1      49.658   7.295  12.203  0.00  0.00    +0.000 C 
ATOM     12  C   UNL     1      50.021   8.213  13.362  0.00  0.00    +0.000 C 
ATOM     13  N   UNL     1      48.938   8.289  14.341  0.00  0.00    +0.000 NA
ATOM     14  C   UNL     1      47.695   8.780  13.733  0.00  0.00    +0.000 C 
ATOM     15  H   UNL     1      49.215   8.928  15.088  0.00  0.00    +0.000 HD
ENDBRANCH   6   9
BRANCH   1  16
ATOM     16  C   UNL     1      43.862   4.658  10.792  0.00  0.00    +0.000 C 
BRANCH  16  17
ATOM     17  O   UNL     1      44.366   4.785   9.460  0.00  0.00    +0.000 OA
BRANCH  17  22
ATOM     18  C   UNL     1      46.514   2.475   7.511  0.00  0.00    +0.000 A 
ATOM     19  C   UNL     1      46.033   1.295   8.059  0.00  0.00    +0.000 A 
ATOM     20  N   UNL     1      45.088   1.256   9.028  0.00  0.00    +0.000 NA
ATOM     21  C   UNL     1      44.593   2.450   9.441  0.00  0.00    +0.000 A 
ATOM     22  C   UNL     1      44.988   3.684   8.938  0.00  0.00    +0.000 A 
ATOM     23  C   UNL     1      45.973   3.688   7.952  0.00  0.00    +0.000 A 
BRANCH  18  25
ATOM     24  N   UNL     1      47.409   3.245   5.394  0.00  0.00    +0.000 N 
ATOM     25  C   UNL     1      47.561   2.410   6.472  0.00  0.00    +0.000 C 
ATOM     26  O   UNL     1      48.531   1.684   6.576  0.00  0.00    +0.000 OA
ATOM     27  H   UNL     1      48.184   3.268   4.745  0.00  0.00    +0.000 HD
ATOM     28  H   UNL     1      46.789   4.045   5.404  0.00  0.00    +0.000 HD
ENDBRANCH  18  25
ENDBRANCH  17  22
ENDBRANCH  16  17
ENDBRANCH   1  16
TORSDOF 5
ENDMDL
MODEL 3
REMARK VINA RESULT:    -7.638      3.443      5.150
REMARK INTER + INTRA:          -9.940
REMARK INTER:                  -9.416
REMARK INTRA:                  -0.524
REMARK UNBOUND:                -0.069
REMARK  Name = 
REMARK  5 active torsions:
REMARK  status: ('A' for Active; 'I' for Inactive)
REMARK    1  A    between atoms: C_2  and  C_4
REMARK    2  A    between atoms: C_8  and  O_9
REMARK    3  A    between atoms: O_9  and  C_10
REMARK    4  A    between atoms: C_10  and  C_11
REMARK    5  A    between atoms: C_16  and  C_17
REMARK                            x       y       z     vdW  Elec       q    Type
REMARK                         _______ _______ _______ _____ _____    ______ ____
ROOT
ATOM      1  C   UNL     1      47.675   6.357  13.936  0.00  0.00    +0.000 A 
ATOM      2  C   UNL     1      48.179   7.553  14.433  0.00  0.00    +0.000 A 
ATOM      3  F   UNL     1      48.031   8.683  13.726  0.00  0.00    +0.000 F 
ATOM      4  C   UNL     1      48.842   7.607  15.656  0.00  0.00    +0.000 A 
ATOM      5  C   UNL     1      48.949   6.461  16.447  0.00  0.00    +0.000 A 
ATOM      6  C   UNL     1      48.353   5.267  16.030  0.00  0.00    +0.000 A 
ATOM      7  C   UNL     1      47.778   5.224  14.744  0.00  0.00    +0.000 A 
ATOM      8  F   UNL     1      47.275   4.064  14.292  0.00  0.00    +0.000 F 
ENDROOT
BRANCH   6   9
ATOM      9  C   UNL     1      48.113   4.084  16.962  0.00  0.00    +0.000 C 
ATOM     10  C   UNL     1      49.137   4.152  18.117  0.00  0.00    +0.000 C 
ATOM     11  C   UNL     1      50.465   3.474  17.780  0.00  0.00    +0.000 C 
ATOM     12  C   UNL     1      50.251   2.067  17.238  0.00  0.00    +0.000 C 
ATOM     13  N   UNL     1      49.388   2.077  16.057  0.00  0.00    +0.000 NA
ATOM     14  C   UNL     1      48.075   2.664  16.353  0.00  0.00    +0.000 C 
ATOM     15  H   UNL     1      49.256   1.115  15.740  0.00  0.00    +0.000 HD
ENDBRANCH   6   9
BRANCH   1  16
ATOM     16  C   UNL     1      47.003   6.295  12.598  0.00  0.00    +0.000 C 
BRANCH  16  17
ATOM     17  O   UNL     1      45.584   6.231  12.766  0.00  0.00    +0.000 OA
BRANCH  17  22
ATOM     18  C   UNL     1      44.379   3.466  10.608  0.00  0.00    +0.000 A 
ATOM     19  C   UNL     1      43.561   2.861  11.550  0.00  0.00    +0.000 A 
ATOM     20  N   UNL     1      43.434   3.309  12.822  0.00  0.00    +0.000 NA
ATOM     21  C   UNL     1      44.139   4.422  13.146  0.00  0.00    +0.000 A 
ATOM     22  C   UNL     1      44.964   5.116  12.271  0.00  0.00    +0.000 A 
ATOM     23  C   UNL     1      45.083   4.620  10.974  0.00  0.00    +0.000 A 
BRANCH  18  25
ATOM     24  N   UNL     1      44.345   3.763   8.202  0.00  0.00    +0.000 N 
ATOM     25  C   UNL     1      44.464   2.889   9.252  0.00  0.00    +0.000 C 
ATOM     26  O   UNL     1      44.666   1.703   9.066  0.00  0.00    +0.000 OA
ATOM     27  H   UNL     1      44.510   3.373   7.285  0.00  0.00    +0.000 HD
ATOM     28  H   UNL     1      44.459   4.764   8.307  0.00  0.00    +0.000 HD
ENDBRANCH  18  25
ENDBRANCH  17  22
ENDBRANCH  16  17
ENDBRANCH   1  16
TORSDOF 5
ENDMDL
MODEL 4
REMARK VINA RESULT:    -7.590      1.644      2.220
REMARK INTER + INTRA:          -9.878
REMARK INTER:                  -9.032
REMARK INTRA:                  -0.846
REMARK UNBOUND:                -0.069
REMARK  Name = 
REMARK  5 active torsions:
REMARK  status: ('A' for Active; 'I' for Inactive)
REMARK    1  A    between atoms: C_2  and  C_4
REMARK    2  A    between atoms: C_8  and  O_9
REMARK    3  A    between atoms: O_9  and  C_10
REMARK    4  A    between atoms: C_10  and  C_11
REMARK    5  A    between atoms: C_16  and  C_17
REMARK                            x       y       z     vdW  Elec       q    Type
REMARK                         _______ _______ _______ _____ _____    ______ ____
ROOT
ATOM      1  C   UNL     1      45.341   6.095  12.479  0.00  0.00    +0.000 A 
ATOM      2  C   UNL     1      46.117   5.130  13.113  0.00  0.00    +0.000 A 
ATOM      3  F   UNL     1      45.619   3.901  13.312  0.00  0.00    +0.000 F 
ATOM      4  C   UNL     1      47.408   5.412  13.551  0.00  0.00    +0.000 A 
ATOM      5  C   UNL     1      47.980   6.661  13.294  0.00  0.00    +0.000 A 
ATOM      6  C   UNL     1      47.269   7.615  12.558  0.00  0.00    +0.000 A 
ATOM      7  C   UNL     1      45.931   7.332  12.218  0.00  0.00    +0.000 A 
ATOM      8  F   UNL     1      45.207   8.269  11.585  0.00  0.00    +0.000 F 
ENDROOT
BRANCH   6   9
ATOM      9  C   UNL     1      47.923   8.843  11.934  0.00  0.00    +0.000 C 
ATOM     10  C   UNL     1      49.446   8.599  11.848  0.00  0.00    +0.000 C 
ATOM     11  C   UNL     1      50.187   8.992  13.127  0.00  0.00    +0.000 C 
ATOM     12  C   UNL     1      49.820  10.401  13.574  0.00  0.00    +0.000 C 
ATOM     13  N   UNL     1      48.379  10.536  13.779  0.00  0.00    +0.000 NA
ATOM     14  C   UNL     1      47.629  10.228  12.554  0.00  0.00    +0.000 C 
ATOM     15  H   UNL     1      48.176  11.497  14.057  0.00  0.00    +0.000 HD
ENDBRANCH   6   9
BRANCH   1  16
ATOM     16  C   UNL     1      43.936   5.801  12.050  0.00  0.00    +0.000 C 
BRANCH  16  17
ATOM     17  O   UNL     1      43.867   5.721  10.624  0.00  0.00    +0.000 OA
BRANCH  17  22
ATOM     18  C   UNL     1      45.518   3.125   8.553  0.00  0.00    +0.000 A 
ATOM     19  C   UNL     1      44.872   2.031   9.108  0.00  0.00    +0.000 A 
ATOM     20  N   UNL     1      43.976   2.130  10.119  0.00  0.00    +0.000 NA
ATOM     21  C   UNL     1      43.703   3.381  10.567  0.00  0.00    +0.000 A 
ATOM     22  C   UNL     1      44.275   4.542  10.062  0.00  0.00    +0.000 A 
ATOM     23  C   UNL     1      45.204   4.403   9.032  0.00  0.00    +0.000 A 
BRANCH  18  25
ATOM     24  N   UNL     1      47.081   4.030   6.936  0.00  0.00    +0.000 N 
ATOM     25  C   UNL     1      46.494   2.909   7.467  0.00  0.00    +0.000 C 
ATOM     26  O   UNL     1      46.796   1.796   7.081  0.00  0.00    +0.000 OA
ATOM     27  H   UNL     1      47.822   3.862   6.270  0.00  0.00    +0.000 HD
ATOM     28  H   UNL     1      47.074   4.926   7.405  0.00  0.00    +0.000 HD
ENDBRANCH  18  25
ENDBRANCH  17  22
ENDBRANCH  16  17
ENDBRANCH   1  16
TORSDOF 5
ENDMDL
MODEL 5
REMARK VINA RESULT:    -7.536      1.786      2.254
REMARK INTER + INTRA:          -9.808
REMARK INTER:                  -8.930
REMARK INTRA:                  -0.879
REMARK UNBOUND:                -0.069
REMARK  Name = 
REMARK  5 active torsions:
REMARK  status: ('A' for Active; 'I' for Inactive)
REMARK    1  A    between atoms: C_2  and  C_4
REMARK    2  A    between atoms: C_8  and  O_9
REMARK    3  A    between atoms: O_9  and  C_10
REMARK    4  A    between atoms: C_10  and  C_11
REMARK    5  A    between atoms: C_16  and  C_17
REMARK                            x       y       z     vdW  Elec       q    Type
REMARK                         _______ _______ _______ _____ _____    ______ ____
ROOT
ATOM      1  C   UNL     1      44.358   5.036  10.667  0.00  0.00    +0.000 A 
ATOM      2  C   UNL     1      43.590   5.028  11.826  0.00  0.00    +0.000 A 
ATOM      3  F   UNL     1      42.504   4.246  11.900  0.00  0.00    +0.000 F 
ATOM      4  C   UNL     1      43.924   5.821  12.920  0.00  0.00    +0.000 A 
ATOM      5  C   UNL     1      45.089   6.592  12.900  0.00  0.00    +0.000 A 
ATOM      6  C   UNL     1      45.944   6.535  11.794  0.00  0.00    +0.000 A 
ATOM      7  C   UNL     1      45.525   5.800  10.667  0.00  0.00    +0.000 A 
ATOM      8  F   UNL     1      46.293   5.801   9.565  0.00  0.00    +0.000 F 
ENDROOT
BRANCH   6   9
ATOM      9  C   UNL     1      47.379   7.048  11.822  0.00  0.00    +0.000 C 
ATOM     10  C   UNL     1      48.199   6.163  12.789  0.00  0.00    +0.000 C 
ATOM     11  C   UNL     1      48.120   6.633  14.242  0.00  0.00    +0.000 C 
ATOM     12  C   UNL     1      48.430   8.119  14.365  0.00  0.00    +0.000 C 
ATOM     13  N   UNL     1      47.529   8.921  13.538  0.00  0.00    +0.000 NA
ATOM     14  C   UNL     1      47.620   8.545  12.121  0.00  0.00    +0.000 C 
ATOM     15  H   UNL     1      47.785   9.905  13.635  0.00  0.00    +0.000 HD
ENDBRANCH   6   9
BRANCH   1  16
ATOM     16  C   UNL     1      43.969   4.215   9.475  0.00  0.00    +0.000 C 
BRANCH  16  17
ATOM     17  O   UNL     1      44.409   2.865   9.646  0.00  0.00    +0.000 OA
BRANCH  17  22
ATOM     18  C   UNL     1      46.657   2.463   6.725  0.00  0.00    +0.000 A 
ATOM     19  C   UNL     1      46.947   1.121   6.918  0.00  0.00    +0.000 A 
ATOM     20  N   UNL     1      46.463   0.398   7.957  0.00  0.00    +0.000 NA
ATOM     21  C   UNL     1      45.638   1.047   8.816  0.00  0.00    +0.000 A 
ATOM     22  C   UNL     1      45.266   2.380   8.696  0.00  0.00    +0.000 A 
ATOM     23  C   UNL     1      45.793   3.099   7.624  0.00  0.00    +0.000 A 
BRANCH  18  25
ATOM     24  N   UNL     1      48.309   2.551   4.952  0.00  0.00    +0.000 N 
ATOM     25  C   UNL     1      47.251   3.167   5.572  0.00  0.00    +0.000 C 
ATOM     26  O   UNL     1      46.808   4.224   5.161  0.00  0.00    +0.000 OA
ATOM     27  H   UNL     1      48.636   2.990   4.103  0.00  0.00    +0.000 HD
ATOM     28  H   UNL     1      48.520   1.569   5.077  0.00  0.00    +0.000 HD
ENDBRANCH  18  25
ENDBRANCH  17  22
ENDBRANCH  16  17
ENDBRANCH   1  16
TORSDOF 5
ENDMDL
MODEL 6
REMARK VINA RESULT:    -7.345      3.569      5.111
REMARK INTER + INTRA:          -9.562
REMARK INTER:                  -8.674
REMARK INTRA:                  -0.888
REMARK UNBOUND:                -0.069
REMARK  Name = 
REMARK  5 active torsions:
REMARK  status: ('A' for Active; 'I' for Inactive)
REMARK    1  A    between atoms: C_2  and  C_4
REMARK    2  A    between atoms: C_8  and  O_9
REMARK    3  A    between atoms: O_9  and  C_10
REMARK    4  A    between atoms: C_10  and  C_11
REMARK    5  A    between atoms: C_16  and  C_17
REMARK                            x       y       z     vdW  Elec       q    Type
REMARK                         _______ _______ _______ _____ _____    ______ ____
ROOT
ATOM      1  C   UNL     1      47.549   4.905  14.795  0.00  0.00    +0.000 A 
ATOM      2  C   UNL     1      48.002   6.119  14.292  0.00  0.00    +0.000 A 
ATOM      3  F   UNL     1      47.693   6.477  13.038  0.00  0.00    +0.000 F 
ATOM      4  C   UNL     1      48.776   6.980  15.066  0.00  0.00    +0.000 A 
ATOM      5  C   UNL     1      49.054   6.667  16.399  0.00  0.00    +0.000 A 
ATOM      6  C   UNL     1      48.519   5.508  16.970  0.00  0.00    +0.000 A 
ATOM      7  C   UNL     1      47.824   4.613  16.132  0.00  0.00    +0.000 A 
ATOM      8  F   UNL     1      47.374   3.456  16.643  0.00  0.00    +0.000 F 
ENDROOT
BRANCH   6   9
ATOM      9  C   UNL     1      48.468   5.266  18.475  0.00  0.00    +0.000 C 
ATOM     10  C   UNL     1      47.187   5.922  19.036  0.00  0.00    +0.000 C 
ATOM     11  C   UNL     1      47.377   7.397  19.392  0.00  0.00    +0.000 C 
ATOM     12  C   UNL     1      48.603   7.606  20.271  0.00  0.00    +0.000 C 
ATOM     13  N   UNL     1      49.813   7.093  19.628  0.00  0.00    +0.000 NA
ATOM     14  C   UNL     1      49.697   5.661  19.325  0.00  0.00    +0.000 C 
ATOM     15  H   UNL     1      50.603   7.235  20.258  0.00  0.00    +0.000 HD
ENDBRANCH   6   9
BRANCH   1  16
ATOM     16  C   UNL     1      46.755   3.961  13.944  0.00  0.00    +0.000 C 
BRANCH  16  17
ATOM     17  O   UNL     1      45.365   4.289  14.018  0.00  0.00    +0.000 OA
BRANCH  17  22
ATOM     18  C   UNL     1      44.493   4.546  10.423  0.00  0.00    +0.000 A 
ATOM     19  C   UNL     1      43.190   4.987  10.596  0.00  0.00    +0.000 A 
ATOM     20  N   UNL     1      42.619   5.160  11.813  0.00  0.00    +0.000 NA
ATOM     21  C   UNL     1      43.401   4.903  12.891  0.00  0.00    +0.000 A 
ATOM     22  C   UNL     1      44.723   4.483  12.825  0.00  0.00    +0.000 A 
ATOM     23  C   UNL     1      45.275   4.301  11.558  0.00  0.00    +0.000 A 
BRANCH  18  25
ATOM     24  N   UNL     1      44.409   3.412   8.281  0.00  0.00    +0.000 N 
ATOM     25  C   UNL     1      45.016   4.370   9.054  0.00  0.00    +0.000 C 
ATOM     26  O   UNL     1      45.915   5.060   8.612  0.00  0.00    +0.000 OA
ATOM     27  H   UNL     1      44.705   3.375   7.316  0.00  0.00    +0.000 HD
ATOM     28  H   UNL     1      43.500   3.025   8.503  0.00  0.00    +0.000 HD
ENDBRANCH  18  25
ENDBRANCH  17  22
ENDBRANCH  16  17
ENDBRANCH   1  16
TORSDOF 5
ENDMDL
MODEL 7
REMARK VINA RESULT:    -7.343      2.386      6.792
REMARK INTER + INTRA:          -9.558
REMARK INTER:                  -9.315
REMARK INTRA:                  -0.243
REMARK UNBOUND:                -0.069
REMARK  Name = 
REMARK  5 active torsions:
REMARK  status: ('A' for Active; 'I' for Inactive)
REMARK    1  A    between atoms: C_2  and  C_4
REMARK    2  A    between atoms: C_8  and  O_9
REMARK    3  A    between atoms: O_9  and  C_10
REMARK    4  A    between atoms: C_10  and  C_11
REMARK    5  A    between atoms: C_16  and  C_17
REMARK                            x       y       z     vdW  Elec       q    Type
REMARK                         _______ _______ _______ _____ _____    ______ ____
ROOT
ATOM      1  C   UNL     1      45.092   5.220  10.817  0.00  0.00    +0.000 A 
ATOM      2  C   UNL     1      44.274   4.412  11.598  0.00  0.00    +0.000 A 
ATOM      3  F   UNL     1      43.786   4.880  12.756  0.00  0.00    +0.000 F 
ATOM      4  C   UNL     1      43.948   3.116  11.206  0.00  0.00    +0.000 A 
ATOM      5  C   UNL     1      44.382   2.627   9.971  0.00  0.00    +0.000 A 
ATOM      6  C   UNL     1      45.110   3.453   9.110  0.00  0.00    +0.000 A 
ATOM      7  C   UNL     1      45.506   4.722   9.581  0.00  0.00    +0.000 A 
ATOM      8  F   UNL     1      46.277   5.496   8.800  0.00  0.00    +0.000 F 
ENDROOT
BRANCH   6   9
ATOM      9  C   UNL     1      45.319   3.142   7.632  0.00  0.00    +0.000 C 
ATOM     10  C   UNL     1      45.478   1.613   7.470  0.00  0.00    +0.000 C 
ATOM     11  C   UNL     1      46.920   1.139   7.659  0.00  0.00    +0.000 C 
ATOM     12  C   UNL     1      47.890   1.946   6.806  0.00  0.00    +0.000 C 
ATOM     13  N   UNL     1      47.797   3.375   7.104  0.00  0.00    +0.000 NA
ATOM     14  C   UNL     1      46.440   3.887   6.873  0.00  0.00    +0.000 C 
ATOM     15  H   UNL     1      48.447   3.878   6.498  0.00  0.00    +0.000 HD
ENDBRANCH   6   9
BRANCH   1  16
ATOM     16  C   UNL     1      45.478   6.597  11.265  0.00  0.00    +0.000 C 
BRANCH  16  17
ATOM     17  O   UNL     1      46.899   6.686  11.401  0.00  0.00    +0.000 OA
BRANCH  17  22
ATOM     18  C   UNL     1      47.720   5.460  14.803  0.00  0.00    +0.000 A 
ATOM     19  C   UNL     1      48.523   6.527  15.178  0.00  0.00    +0.000 A 
ATOM     20  N   UNL     1      48.805   7.569  14.359  0.00  0.00    +0.000 NA
ATOM     21  C   UNL     1      48.236   7.544  13.127  0.00  0.00    +0.000 A 
ATOM     22  C   UNL     1      47.398   6.536  12.666  0.00  0.00    +0.000 A 
ATOM     23  C   UNL     1      47.140   5.472  13.529  0.00  0.00    +0.000 A 
BRANCH  18  25
ATOM     24  N   UNL     1      47.062   4.721  17.017  0.00  0.00    +0.000 N 
ATOM     25  C   UNL     1      47.490   4.363  15.763  0.00  0.00    +0.000 C 
ATOM     26  O   UNL     1      47.633   3.194  15.456  0.00  0.00    +0.000 OA
ATOM     27  H   UNL     1      46.807   3.958  17.627  0.00  0.00    +0.000 HD
ATOM     28  H   UNL     1      46.667   5.631  17.221  0.00  0.00    +0.000 HD
ENDBRANCH  18  25
ENDBRANCH  17  22
ENDBRANCH  16  17
ENDBRANCH   1  16
TORSDOF 5
ENDMDL
MODEL 8
REMARK VINA RESULT:    -7.331      3.646      4.859
REMARK INTER + INTRA:          -9.543
REMARK INTER:                  -8.643
REMARK INTRA:                  -0.900
REMARK UNBOUND:                -0.069
REMARK  Name = 
REMARK  5 active torsions:
REMARK  status: ('A' for Active; 'I' for Inactive)
REMARK    1  A    between atoms: C_2  and  C_4
REMARK    2  A    between atoms: C_8  and  O_9
REMARK    3  A    between atoms: O_9  and  C_10
REMARK    4  A    between atoms: C_10  and  C_11
REMARK    5  A    between atoms: C_16  and  C_17
REMARK                            x       y       z     vdW  Elec       q    Type
REMARK                         _______ _______ _______ _____ _____    ______ ____
ROOT
ATOM      1  C   UNL     1      47.674   5.529  14.454  0.00  0.00    +0.000 A 
ATOM      2  C   UNL     1      47.251   4.217  14.633  0.00  0.00    +0.000 A 
ATOM      3  F   UNL     1      46.694   3.551  13.611  0.00  0.00    +0.000 F 
ATOM      4  C   UNL     1      47.391   3.572  15.859  0.00  0.00    +0.000 A 
ATOM      5  C   UNL     1      48.032   4.215  16.921  0.00  0.00    +0.000 A 
ATOM      6  C   UNL     1      48.572   5.493  16.740  0.00  0.00    +0.000 A 
ATOM      7  C   UNL     1      48.324   6.153  15.519  0.00  0.00    +0.000 A 
ATOM      8  F   UNL     1      48.762   7.412  15.358  0.00  0.00    +0.000 F 
ENDROOT
BRANCH   6   9
ATOM      9  C   UNL     1      49.576   6.119  17.702  0.00  0.00    +0.000 C 
ATOM     10  C   UNL     1      50.991   5.969  17.100  0.00  0.00    +0.000 C 
ATOM     11  C   UNL     1      51.653   4.637  17.452  0.00  0.00    +0.000 C 
ATOM     12  C   UNL     1      51.595   4.363  18.950  0.00  0.00    +0.000 C 
ATOM     13  N   UNL     1      50.218   4.375  19.440  0.00  0.00    +0.000 NA
ATOM     14  C   UNL     1      49.563   5.663  19.178  0.00  0.00    +0.000 C 
ATOM     15  H   UNL     1      50.228   4.208  20.447  0.00  0.00    +0.000 HD
ENDBRANCH   6   9
BRANCH   1  16
ATOM     16  C   UNL     1      47.479   6.234  13.146  0.00  0.00    +0.000 C 
BRANCH  16  17
ATOM     17  O   UNL     1      46.125   6.679  13.028  0.00  0.00    +0.000 OA
BRANCH  17  22
ATOM     18  C   UNL     1      44.801   4.862  10.079  0.00  0.00    +0.000 A 
ATOM     19  C   UNL     1      43.513   4.678  10.559  0.00  0.00    +0.000 A 
ATOM     20  N   UNL     1      43.109   5.093  11.783  0.00  0.00    +0.000 NA
ATOM     21  C   UNL     1      44.031   5.740  12.539  0.00  0.00    +0.000 A 
ATOM     22  C   UNL     1      45.337   5.998  12.141  0.00  0.00    +0.000 A 
ATOM     23  C   UNL     1      45.724   5.544  10.881  0.00  0.00    +0.000 A 
BRANCH  18  25
ATOM     24  N   UNL     1      44.361   3.347   8.238  0.00  0.00    +0.000 N 
ATOM     25  C   UNL     1      45.147   4.354   8.737  0.00  0.00    +0.000 C 
ATOM     26  O   UNL     1      46.060   4.824   8.084  0.00  0.00    +0.000 OA
ATOM     27  H   UNL     1      44.542   3.083   7.280  0.00  0.00    +0.000 HD
ATOM     28  H   UNL     1      43.446   3.129   8.614  0.00  0.00    +0.000 HD
ENDBRANCH  18  25
ENDBRANCH  17  22
ENDBRANCH  16  17
ENDBRANCH   1  16
TORSDOF 5
ENDMDL
MODEL 9
REMARK VINA RESULT:    -7.328      4.517      7.801
REMARK INTER + INTRA:          -9.539
REMARK INTER:                  -8.673
REMARK INTRA:                  -0.866
REMARK UNBOUND:                -0.069
REMARK  Name = 
REMARK  5 active torsions:
REMARK  status: ('A' for Active; 'I' for Inactive)
REMARK    1  A    between atoms: C_2  and  C_4
REMARK    2  A    between atoms: C_8  and  O_9
REMARK    3  A    between atoms: O_9  and  C_10
REMARK    4  A    between atoms: C_10  and  C_11
REMARK    5  A    between atoms: C_16  and  C_17
REMARK                            x       y       z     vdW  Elec       q    Type
REMARK                         _______ _______ _______ _____ _____    ______ ____
ROOT
ATOM      1  C   UNL     1      48.087   7.487  13.646  0.00  0.00    +0.000 A 
ATOM      2  C   UNL     1      47.600   8.746  13.314  0.00  0.00    +0.000 A 
ATOM      3  F   UNL     1      48.401   9.817  13.411  0.00  0.00    +0.000 F 
ATOM      4  C   UNL     1      46.288   8.924  12.883  0.00  0.00    +0.000 A 
ATOM      5  C   UNL     1      45.452   7.819  12.704  0.00  0.00    +0.000 A 
ATOM      6  C   UNL     1      45.946   6.528  12.918  0.00  0.00    +0.000 A 
ATOM      7  C   UNL     1      47.245   6.392  13.449  0.00  0.00    +0.000 A 
ATOM      8  F   UNL     1      47.705   5.165  13.741  0.00  0.00    +0.000 F 
ENDROOT
BRANCH   6   9
ATOM      9  C   UNL     1      45.241   5.271  12.421  0.00  0.00    +0.000 C 
ATOM     10  C   UNL     1      44.684   5.547  11.006  0.00  0.00    +0.000 C 
ATOM     11  C   UNL     1      43.295   6.185  11.024  0.00  0.00    +0.000 C 
ATOM     12  C   UNL     1      42.335   5.407  11.915  0.00  0.00    +0.000 C 
ATOM     13  N   UNL     1      42.846   5.299  13.281  0.00  0.00    +0.000 NA
ATOM     14  C   UNL     1      44.154   4.633  13.316  0.00  0.00    +0.000 C 
ATOM     15  H   UNL     1      42.184   4.756  13.836  0.00  0.00    +0.000 HD
ENDBRANCH   6   9
BRANCH   1  16
ATOM     16  C   UNL     1      49.485   7.306  14.154  0.00  0.00    +0.000 C 
BRANCH  16  17
ATOM     17  O   UNL     1      49.514   7.469  15.575  0.00  0.00    +0.000 OA
BRANCH  17  22
ATOM     18  C   UNL     1      48.945   4.358  17.513  0.00  0.00    +0.000 A 
ATOM     19  C   UNL     1      50.274   4.104  17.817  0.00  0.00    +0.000 A 
ATOM     20  N   UNL     1      51.297   4.882  17.390  0.00  0.00    +0.000 NA
ATOM     21  C   UNL     1      50.964   5.970  16.650  0.00  0.00    +0.000 A 
ATOM     22  C   UNL     1      49.664   6.326  16.313  0.00  0.00    +0.000 A 
ATOM     23  C   UNL     1      48.636   5.496  16.757  0.00  0.00    +0.000 A 
BRANCH  18  25
ATOM     24  N   UNL     1      48.101   2.905  19.260  0.00  0.00    +0.000 N 
ATOM     25  C   UNL     1      47.905   3.437  18.011  0.00  0.00    +0.000 C 
ATOM     26  O   UNL     1      46.902   3.186  17.369  0.00  0.00    +0.000 OA
ATOM     27  H   UNL     1      47.334   2.362  19.631  0.00  0.00    +0.000 HD
ATOM     28  H   UNL     1      48.756   3.296  19.925  0.00  0.00    +0.000 HD
ENDBRANCH  18  25
ENDBRANCH  17  22
ENDBRANCH  16  17
ENDBRANCH   1  16
TORSDOF 5
ENDMDL
