MODEL 1
REMARK VINA RESULT:    -7.406      0.000      0.000
REMARK INTER + INTRA:         -10.914
REMARK INTER:                 -10.004
REMARK INTRA:                  -0.910
REMARK UNBOUND:                -0.910
REMARK  Name = 
REMARK  7 active torsions:
REMARK  status: ('A' for Active; 'I' for Inactive)
REMARK    1  A    between atoms: C_1  and  O_2
REMARK    2  A    between atoms: O_2  and  C_3
REMARK    3  A    between atoms: C_8  and  C_9
REMARK    4  A    between atoms: C_9  and  N_10
REMARK    5  A    between atoms: C_14  and  C_15
REMARK    6  A    between atoms: C_15  and  N_16
REMARK    7  A    between atoms: C_17  and  C_19
REMARK                            x       y       z     vdW  Elec       q    Type
REMARK                         _______ _______ _______ _____ _____    ______ ____
ROOT
ATOM      1  N   UNL     1      50.879   6.504  16.939  0.00  0.00    +0.000 N 
ATOM      2  C   UNL     1      50.194   6.889  15.780  0.00  0.00    +0.000 A 
ATOM      3  C   UNL     1      50.629   8.049  15.140  0.00  0.00    +0.000 A 
ATOM      4  C   UNL     1      50.003   8.471  13.970  0.00  0.00    +0.000 A 
ATOM      5  C   UNL     1      48.985   7.696  13.424  0.00  0.00    +0.000 A 
ATOM      6  C   UNL     1      48.613   6.557  14.127  0.00  0.00    +0.000 A 
ATOM      7  N   UNL     1      49.189   6.144  15.285  0.00  0.00    +0.000 NA
ATOM      8  H   UNL     1      51.780   6.122  16.665  0.00  0.00    +0.000 HD
ENDROOT
BRANCH   1   9
ATOM      9  C   UNL     1      50.177   5.588  17.832  0.00  0.00    +0.000 C 
BRANCH   9  15
ATOM     10  C   UNL     1      50.074   3.094  17.207  0.00  0.00    +0.000 A 
ATOM     11  C   UNL     1      50.679   1.827  17.206  0.00  0.00    +0.000 A 
ATOM     12  C   UNL     1      51.980   1.652  17.683  0.00  0.00    +0.000 A 
ATOM     13  C   UNL     1      52.699   2.743  18.149  0.00  0.00    +0.000 A 
ATOM     14  C   UNL     1      52.108   4.005  18.159  0.00  0.00    +0.000 A 
ATOM     15  C   UNL     1      50.789   4.202  17.696  0.00  0.00    +0.000 A 
BRANCH  10  17
ATOM     16  C   UNL     1      47.725   2.904  17.527  0.00  0.00    +0.000 C 
ATOM     17  O   UNL     1      48.815   3.337  16.720  0.00  0.00    +0.000 OA
ENDBRANCH  10  17
ENDBRANCH   9  15
ENDBRANCH   1   9
BRANCH   5  18
ATOM     18  C   UNL     1      48.317   8.085  12.141  0.00  0.00    +0.000 C 
BRANCH  18  19
ATOM     19  N   UNL     1      47.582   6.990  11.564  0.00  0.00    +0.000 N 
ATOM     20  C   UNL     1      46.223   6.860  11.669  0.00  0.00    +0.000 C 
ATOM     21  O   UNL     1      45.529   7.675  12.273  0.00  0.00    +0.000 OA
ATOM     22  H   UNL     1      48.129   6.207  11.218  0.00  0.00    +0.000 HD
BRANCH  20  23
ATOM     23  C   UNL     1      45.625   5.727  10.950  0.00  0.00    +0.000 A 
ATOM     24  C   UNL     1      45.785   5.625   9.575  0.00  0.00    +0.000 A 
ATOM     25  S   UNL     1      45.061   4.238   8.900  0.00  0.00    +0.000 S 
ATOM     26  C   UNL     1      44.466   3.746  10.414  0.00  0.00    +0.000 A 
ATOM     27  N   UNL     1      43.712   2.620  10.536  0.00  0.00    +0.000 NA
ATOM     28  C   UNL     1      43.298   2.383  11.736  0.00  0.00    +0.000 A 
ATOM     29  N   UNL     1      43.582   3.160  12.828  0.00  0.00    +0.000 N 
ATOM     30  C   UNL     1      44.400   4.264  12.767  0.00  0.00    +0.000 A 
ATOM     31  O   UNL     1      44.750   4.853  13.781  0.00  0.00    +0.000 OA
ATOM     32  C   UNL     1      44.846   4.608  11.429  0.00  0.00    +0.000 A 
ATOM     33  H   UNL     1      43.257   2.896  13.747  0.00  0.00    +0.000 HD
ENDBRANCH  20  23
ENDBRANCH  18  19
ENDBRANCH   5  18
TORSDOF 6
ENDMDL
MODEL 2
REMARK VINA RESULT:    -7.406      3.177      8.558
REMARK INTER + INTRA:         -10.914
REMARK INTER:                  -9.782
REMARK INTRA:                  -1.132
REMARK UNBOUND:                -0.910
REMARK  Name = 
REMARK  7 active torsions:
REMARK  status: ('A' for Active; 'I' for Inactive)
REMARK    1  A    between atoms: C_1  and  O_2
REMARK    2  A    between atoms: O_2  and  C_3
REMARK    3  A    between atoms: C_8  and  C_9
REMARK    4  A    between atoms: C_9  and  N_10
REMARK    5  A    between atoms: C_14  and  C_15
REMARK    6  A    between atoms: C_15  and  N_16
REMARK    7  A    between atoms: C_17  and  C_19
REMARK                            x       y       z     vdW  Elec       q    Type
REMARK                         _______ _______ _______ _____ _____    ______ ____
ROOT
ATOM      1  N   UNL     1      45.912   4.989  12.156  0.00  0.00    +0.000 N 
ATOM      2  C   UNL     1      46.785   5.652  13.028  0.00  0.00    +0.000 A 
ATOM      3  C   UNL     1      46.958   5.098  14.296  0.00  0.00    +0.000 A 
ATOM      4  C   UNL     1      47.830   5.698  15.201  0.00  0.00    +0.000 A 
ATOM      5  C   UNL     1      48.560   6.814  14.806  0.00  0.00    +0.000 A 
ATOM      6  C   UNL     1      48.324   7.302  13.527  0.00  0.00    +0.000 A 
ATOM      7  N   UNL     1      47.457   6.751  12.640  0.00  0.00    +0.000 NA
ATOM      8  H   UNL     1      46.374   4.148  11.822  0.00  0.00    +0.000 HD
ENDROOT
BRANCH   1   9
ATOM      9  C   UNL     1      45.394   5.773  11.040  0.00  0.00    +0.000 C 
BRANCH   9  15
ATOM     10  C   UNL     1      44.364   3.835   9.698  0.00  0.00    +0.000 A 
ATOM     11  C   UNL     1      44.404   2.992   8.576  0.00  0.00    +0.000 A 
ATOM     12  C   UNL     1      45.358   3.177   7.572  0.00  0.00    +0.000 A 
ATOM     13  C   UNL     1      46.271   4.219   7.668  0.00  0.00    +0.000 A 
ATOM     14  C   UNL     1      46.243   5.059   8.780  0.00  0.00    +0.000 A 
ATOM     15  C   UNL     1      45.298   4.880   9.812  0.00  0.00    +0.000 A 
BRANCH  10  17
ATOM     16  C   UNL     1      43.479   2.543  11.488  0.00  0.00    +0.000 C 
ATOM     17  O   UNL     1      43.431   3.726  10.697  0.00  0.00    +0.000 OA
ENDBRANCH  10  17
ENDBRANCH   9  15
ENDBRANCH   1   9
BRANCH   5  18
ATOM     18  C   UNL     1      49.545   7.463  15.729  0.00  0.00    +0.000 C 
BRANCH  18  19
ATOM     19  N   UNL     1      50.492   6.516  16.257  0.00  0.00    +0.000 N 
ATOM     20  C   UNL     1      50.440   6.038  17.539  0.00  0.00    +0.000 C 
ATOM     21  O   UNL     1      49.575   6.389  18.337  0.00  0.00    +0.000 OA
ATOM     22  H   UNL     1      51.321   6.342  15.696  0.00  0.00    +0.000 HD
BRANCH  20  23
ATOM     23  C   UNL     1      51.435   5.015  17.888  0.00  0.00    +0.000 A 
ATOM     24  C   UNL     1      52.639   5.397  18.465  0.00  0.00    +0.000 A 
ATOM     25  S   UNL     1      53.666   4.090  18.840  0.00  0.00    +0.000 S 
ATOM     26  C   UNL     1      52.559   2.968  18.203  0.00  0.00    +0.000 A 
ATOM     27  N   UNL     1      52.846   1.638  18.184  0.00  0.00    +0.000 NA
ATOM     28  C   UNL     1      51.934   0.903  17.641  0.00  0.00    +0.000 A 
ATOM     29  N   UNL     1      50.753   1.375  17.129  0.00  0.00    +0.000 N 
ATOM     30  C   UNL     1      50.388   2.700  17.193  0.00  0.00    +0.000 A 
ATOM     31  O   UNL     1      49.269   3.067  16.858  0.00  0.00    +0.000 OA
ATOM     32  C   UNL     1      51.405   3.578  17.743  0.00  0.00    +0.000 A 
ATOM     33  H   UNL     1      50.065   0.740  16.752  0.00  0.00    +0.000 HD
ENDBRANCH  20  23
ENDBRANCH  18  19
ENDBRANCH   5  18
TORSDOF 6
ENDMDL
MODEL 3
REMARK VINA RESULT:    -7.216      1.419      2.040
REMARK INTER + INTRA:         -10.657
REMARK INTER:                  -9.640
REMARK INTRA:                  -1.016
REMARK UNBOUND:                -0.910
REMARK  Name = 
REMARK  7 active torsions:
REMARK  status: ('A' for Active; 'I' for Inactive)
REMARK    1  A    between atoms: C_1  and  O_2
REMARK    2  A    between atoms: O_2  and  C_3
REMARK    3  A    between atoms: C_8  and  C_9
REMARK    4  A    between atoms: C_9  and  N_10
REMARK    5  A    between atoms: C_14  and  C_15
REMARK    6  A    between atoms: C_15  and  N_16
REMARK    7  A    between atoms: C_17  and  C_19
REMARK                            x       y       z     vdW  Elec       q    Type
REMARK                         _______ _______ _______ _____ _____    ______ ____
ROOT
ATOM      1  N   UNL     1      51.080   6.785  16.567  0.00  0.00    +0.000 N 
ATOM      2  C   UNL     1      50.157   6.989  15.534  0.00  0.00    +0.000 A 
ATOM      3  C   UNL     1      50.409   8.041  14.654  0.00  0.00    +0.000 A 
ATOM      4  C   UNL     1      49.540   8.280  13.592  0.00  0.00    +0.000 A 
ATOM      5  C   UNL     1      48.458   7.429  13.393  0.00  0.00    +0.000 A 
ATOM      6  C   UNL     1      48.279   6.409  14.318  0.00  0.00    +0.000 A 
ATOM      7  N   UNL     1      49.096   6.176  15.377  0.00  0.00    +0.000 NA
ATOM      8  H   UNL     1      51.917   6.368  16.169  0.00  0.00    +0.000 HD
ENDROOT
BRANCH   1   9
ATOM      9  C   UNL     1      50.610   6.013  17.712  0.00  0.00    +0.000 C 
BRANCH   9  15
ATOM     10  C   UNL     1      50.584   3.459  17.404  0.00  0.00    +0.000 A 
ATOM     11  C   UNL     1      51.250   2.227  17.504  0.00  0.00    +0.000 A 
ATOM     12  C   UNL     1      52.593   2.166  17.886  0.00  0.00    +0.000 A 
ATOM     13  C   UNL     1      53.291   3.335  18.154  0.00  0.00    +0.000 A 
ATOM     14  C   UNL     1      52.639   4.563  18.062  0.00  0.00    +0.000 A 
ATOM     15  C   UNL     1      51.279   4.647  17.694  0.00  0.00    +0.000 A 
BRANCH  10  17
ATOM     16  C   UNL     1      48.602   2.388  16.643  0.00  0.00    +0.000 C 
ATOM     17  O   UNL     1      49.280   3.587  17.001  0.00  0.00    +0.000 OA
ENDBRANCH  10  17
ENDBRANCH   9  15
ENDBRANCH   1   9
BRANCH   5  18
ATOM     18  C   UNL     1      47.525   7.619  12.237  0.00  0.00    +0.000 C 
BRANCH  18  19
ATOM     19  N   UNL     1      46.802   6.413  11.926  0.00  0.00    +0.000 N 
ATOM     20  C   UNL     1      45.442   6.303  12.043  0.00  0.00    +0.000 C 
ATOM     21  O   UNL     1      44.737   7.233  12.429  0.00  0.00    +0.000 OA
ATOM     22  H   UNL     1      47.356   5.574  11.782  0.00  0.00    +0.000 HD
BRANCH  20  23
ATOM     23  C   UNL     1      44.857   5.029  11.605  0.00  0.00    +0.000 A 
ATOM     24  C   UNL     1      44.071   4.296  12.485  0.00  0.00    +0.000 A 
ATOM     25  S   UNL     1      43.441   2.863  11.812  0.00  0.00    +0.000 S 
ATOM     26  C   UNL     1      44.232   3.145  10.334  0.00  0.00    +0.000 A 
ATOM     27  N   UNL     1      44.133   2.257   9.308  0.00  0.00    +0.000 NA
ATOM     28  C   UNL     1      44.810   2.579   8.257  0.00  0.00    +0.000 A 
ATOM     29  N   UNL     1      45.566   3.715   8.132  0.00  0.00    +0.000 N 
ATOM     30  C   UNL     1      45.637   4.676   9.114  0.00  0.00    +0.000 A 
ATOM     31  O   UNL     1      46.202   5.744   8.918  0.00  0.00    +0.000 OA
ATOM     32  C   UNL     1      44.938   4.336  10.340  0.00  0.00    +0.000 A 
ATOM     33  H   UNL     1      46.042   3.925   7.267  0.00  0.00    +0.000 HD
ENDBRANCH  20  23
ENDBRANCH  18  19
ENDBRANCH   5  18
TORSDOF 6
ENDMDL
MODEL 4
REMARK VINA RESULT:    -7.186      3.621      8.500
REMARK INTER + INTRA:         -10.617
REMARK INTER:                 -10.104
REMARK INTRA:                  -0.513
REMARK UNBOUND:                -0.910
REMARK  Name = 
REMARK  7 active torsions:
REMARK  status: ('A' for Active; 'I' for Inactive)
REMARK    1  A    between atoms: C_1  and  O_2
REMARK    2  A    between atoms: O_2  and  C_3
REMARK    3  A    between atoms: C_8  and  C_9
REMARK    4  A    between atoms: C_9  and  N_10
REMARK    5  A    between atoms: C_14  and  C_15
REMARK    6  A    between atoms: C_15  and  N_16
REMARK    7  A    between atoms: C_17  and  C_19
REMARK                            x       y       z     vdW  Elec       q    Type
REMARK                         _______ _______ _______ _____ _____    ______ ____
ROOT
ATOM      1  N   UNL     1      45.032   6.556  10.704  0.00  0.00    +0.000 N 
ATOM      2  C   UNL     1      46.044   6.525  11.670  0.00  0.00    +0.000 A 
ATOM      3  C   UNL     1      47.195   7.268  11.411  0.00  0.00    +0.000 A 
ATOM      4  C   UNL     1      48.228   7.296  12.344  0.00  0.00    +0.000 A 
ATOM      5  C   UNL     1      48.073   6.623  13.552  0.00  0.00    +0.000 A 
ATOM      6  C   UNL     1      46.897   5.906  13.727  0.00  0.00    +0.000 A 
ATOM      7  N   UNL     1      45.891   5.840  12.819  0.00  0.00    +0.000 NA
ATOM      8  H   UNL     1      44.568   7.459  10.758  0.00  0.00    +0.000 HD
ENDROOT
BRANCH   1   9
ATOM      9  C   UNL     1      44.060   5.469  10.750  0.00  0.00    +0.000 C 
BRANCH   9  15
ATOM     10  C   UNL     1      44.186   2.998  10.043  0.00  0.00    +0.000 A 
ATOM     11  C   UNL     1      44.743   2.008   9.219  0.00  0.00    +0.000 A 
ATOM     12  C   UNL     1      45.638   2.343   8.199  0.00  0.00    +0.000 A 
ATOM     13  C   UNL     1      45.971   3.673   7.979  0.00  0.00    +0.000 A 
ATOM     14  C   UNL     1      45.426   4.663   8.794  0.00  0.00    +0.000 A 
ATOM     15  C   UNL     1      44.534   4.346   9.840  0.00  0.00    +0.000 A 
BRANCH  10  17
ATOM     16  C   UNL     1      43.768   2.755  12.372  0.00  0.00    +0.000 C 
ATOM     17  O   UNL     1      43.276   2.737  11.036  0.00  0.00    +0.000 OA
ENDBRANCH  10  17
ENDBRANCH   9  15
ENDBRANCH   1   9
BRANCH   5  18
ATOM     18  C   UNL     1      49.137   6.665  14.604  0.00  0.00    +0.000 C 
BRANCH  18  19
ATOM     19  N   UNL     1      48.591   6.920  15.912  0.00  0.00    +0.000 N 
ATOM     20  C   UNL     1      49.347   6.920  17.053  0.00  0.00    +0.000 C 
ATOM     21  O   UNL     1      50.555   6.697  17.043  0.00  0.00    +0.000 OA
ATOM     22  H   UNL     1      47.578   6.927  15.988  0.00  0.00    +0.000 HD
BRANCH  20  23
ATOM     23  C   UNL     1      48.645   7.281  18.293  0.00  0.00    +0.000 A 
ATOM     24  C   UNL     1      48.184   8.579  18.468  0.00  0.00    +0.000 A 
ATOM     25  S   UNL     1      47.363   8.824  19.941  0.00  0.00    +0.000 S 
ATOM     26  C   UNL     1      47.633   7.215  20.420  0.00  0.00    +0.000 A 
ATOM     27  N   UNL     1      47.202   6.765  21.629  0.00  0.00    +0.000 NA
ATOM     28  C   UNL     1      47.502   5.535  21.879  0.00  0.00    +0.000 A 
ATOM     29  N   UNL     1      48.182   4.708  21.023  0.00  0.00    +0.000 N 
ATOM     30  C   UNL     1      48.572   5.096  19.763  0.00  0.00    +0.000 A 
ATOM     31  O   UNL     1      49.048   4.294  18.970  0.00  0.00    +0.000 OA
ATOM     32  C   UNL     1      48.308   6.489  19.454  0.00  0.00    +0.000 A 
ATOM     33  H   UNL     1      48.353   3.743  21.266  0.00  0.00    +0.000 HD
ENDBRANCH  20  23
ENDBRANCH  18  19
ENDBRANCH   5  18
TORSDOF 6
ENDMDL
MODEL 5
REMARK VINA RESULT:    -6.920      4.099      9.731
REMARK INTER + INTRA:         -10.258
REMARK INTER:                  -9.276
REMARK INTRA:                  -0.981
REMARK UNBOUND:                -0.910
REMARK  Name = 
REMARK  7 active torsions:
REMARK  status: ('A' for Active; 'I' for Inactive)
REMARK    1  A    between atoms: C_1  and  O_2
REMARK    2  A    between atoms: O_2  and  C_3
REMARK    3  A    between atoms: C_8  and  C_9
REMARK    4  A    between atoms: C_9  and  N_10
REMARK    5  A    between atoms: C_14  and  C_15
REMARK    6  A    between atoms: C_15  and  N_16
REMARK    7  A    between atoms: C_17  and  C_19
REMARK                            x       y       z     vdW  Elec       q    Type
REMARK                         _______ _______ _______ _____ _____    ______ ____
ROOT
ATOM      1  N   UNL     1      44.154   8.250  11.058  0.00  0.00    +0.000 N 
ATOM      2  C   UNL     1      44.736   7.222  11.811  0.00  0.00    +0.000 A 
ATOM      3  C   UNL     1      44.176   5.951  11.692  0.00  0.00    +0.000 A 
ATOM      4  C   UNL     1      44.724   4.883  12.398  0.00  0.00    +0.000 A 
ATOM      5  C   UNL     1      45.861   5.090  13.172  0.00  0.00    +0.000 A 
ATOM      6  C   UNL     1      46.352   6.387  13.237  0.00  0.00    +0.000 A 
ATOM      7  N   UNL     1      45.816   7.448  12.582  0.00  0.00    +0.000 NA
ATOM      8  H   UNL     1      44.424   8.125  10.087  0.00  0.00    +0.000 HD
ENDROOT
BRANCH   1   9
ATOM      9  C   UNL     1      44.428   9.612  11.502  0.00  0.00    +0.000 C 
BRANCH   9  15
ATOM     10  C   UNL     1      42.458  10.674  10.233  0.00  0.00    +0.000 A 
ATOM     11  C   UNL     1      42.000  11.528   9.217  0.00  0.00    +0.000 A 
ATOM     12  C   UNL     1      42.894  12.293   8.465  0.00  0.00    +0.000 A 
ATOM     13  C   UNL     1      44.255  12.228   8.730  0.00  0.00    +0.000 A 
ATOM     14  C   UNL     1      44.721  11.380   9.733  0.00  0.00    +0.000 A 
ATOM     15  C   UNL     1      43.837  10.587  10.494  0.00  0.00    +0.000 A 
BRANCH  10  17
ATOM     16  C   UNL     1      40.249  10.277  11.020  0.00  0.00    +0.000 C 
ATOM     17  O   UNL     1      41.629   9.926  11.028  0.00  0.00    +0.000 OA
ENDBRANCH  10  17
ENDBRANCH   9  15
ENDBRANCH   1   9
BRANCH   5  18
ATOM     18  C   UNL     1      46.513   3.961  13.909  0.00  0.00    +0.000 C 
BRANCH  18  19
ATOM     19  N   UNL     1      47.466   4.433  14.880  0.00  0.00    +0.000 N 
ATOM     20  C   UNL     1      47.376   4.151  16.217  0.00  0.00    +0.000 C 
ATOM     21  O   UNL     1      46.465   3.472  16.687  0.00  0.00    +0.000 OA
ATOM     22  H   UNL     1      48.123   5.140  14.566  0.00  0.00    +0.000 HD
BRANCH  20  23
ATOM     23  C   UNL     1      48.478   4.641  17.056  0.00  0.00    +0.000 A 
ATOM     24  C   UNL     1      48.412   5.917  17.599  0.00  0.00    +0.000 A 
ATOM     25  S   UNL     1      49.750   6.319  18.574  0.00  0.00    +0.000 S 
ATOM     26  C   UNL     1      50.491   4.819  18.270  0.00  0.00    +0.000 A 
ATOM     27  N   UNL     1      51.709   4.523  18.795  0.00  0.00    +0.000 NA
ATOM     28  C   UNL     1      52.169   3.364  18.457  0.00  0.00    +0.000 A 
ATOM     29  N   UNL     1      51.513   2.468  17.654  0.00  0.00    +0.000 N 
ATOM     30  C   UNL     1      50.249   2.693  17.161  0.00  0.00    +0.000 A 
ATOM     31  O   UNL     1      49.633   1.818  16.568  0.00  0.00    +0.000 OA
ATOM     32  C   UNL     1      49.710   4.006  17.465  0.00  0.00    +0.000 A 
ATOM     33  H   UNL     1      51.913   1.562  17.458  0.00  0.00    +0.000 HD
ENDBRANCH  20  23
ENDBRANCH  18  19
ENDBRANCH   5  18
TORSDOF 6
ENDMDL
MODEL 6
REMARK VINA RESULT:    -6.685      2.441      3.411
REMARK INTER + INTRA:          -9.940
REMARK INTER:                  -8.874
REMARK INTRA:                  -1.066
REMARK UNBOUND:                -0.910
REMARK  Name = 
REMARK  7 active torsions:
REMARK  status: ('A' for Active; 'I' for Inactive)
REMARK    1  A    between atoms: C_1  and  O_2
REMARK    2  A    between atoms: O_2  and  C_3
REMARK    3  A    between atoms: C_8  and  C_9
REMARK    4  A    between atoms: C_9  and  N_10
REMARK    5  A    between atoms: C_14  and  C_15
REMARK    6  A    between atoms: C_15  and  N_16
REMARK    7  A    between atoms: C_17  and  C_19
REMARK                            x       y       z     vdW  Elec       q    Type
REMARK                         _______ _______ _______ _____ _____    ______ ____
ROOT
ATOM      1  N   UNL     1      49.914   8.382  17.251  0.00  0.00    +0.000 N 
ATOM      2  C   UNL     1      49.368   8.165  15.980  0.00  0.00    +0.000 A 
ATOM      3  C   UNL     1      48.629   9.206  15.420  0.00  0.00    +0.000 A 
ATOM      4  C   UNL     1      48.078   9.061  14.148  0.00  0.00    +0.000 A 
ATOM      5  C   UNL     1      48.322   7.894  13.431  0.00  0.00    +0.000 A 
ATOM      6  C   UNL     1      49.065   6.907  14.065  0.00  0.00    +0.000 A 
ATOM      7  N   UNL     1      49.584   7.016  15.314  0.00  0.00    +0.000 NA
ATOM      8  H   UNL     1      50.707   9.010  17.153  0.00  0.00    +0.000 HD
ENDROOT
BRANCH   1   9
ATOM      9  C   UNL     1      50.286   7.190  18.007  0.00  0.00    +0.000 C 
BRANCH   9  15
ATOM     10  C   UNL     1      48.417   5.927  19.245  0.00  0.00    +0.000 A 
ATOM     11  C   UNL     1      47.477   5.886  20.287  0.00  0.00    +0.000 A 
ATOM     12  C   UNL     1      47.413   6.908  21.237  0.00  0.00    +0.000 A 
ATOM     13  C   UNL     1      48.300   7.973  21.170  0.00  0.00    +0.000 A 
ATOM     14  C   UNL     1      49.235   8.026  20.138  0.00  0.00    +0.000 A 
ATOM     15  C   UNL     1      49.307   7.013  19.158  0.00  0.00    +0.000 A 
BRANCH  10  17
ATOM     16  C   UNL     1      47.408   4.654  17.509  0.00  0.00    +0.000 C 
ATOM     17  O   UNL     1      48.553   4.939  18.304  0.00  0.00    +0.000 OA
ENDBRANCH  10  17
ENDBRANCH   9  15
ENDBRANCH   1   9
BRANCH   5  18
ATOM     18  C   UNL     1      47.791   7.713  12.042  0.00  0.00    +0.000 C 
BRANCH  18  19
ATOM     19  N   UNL     1      46.993   6.521  11.923  0.00  0.00    +0.000 N 
ATOM     20  C   UNL     1      45.643   6.542  11.694  0.00  0.00    +0.000 C 
ATOM     21  O   UNL     1      45.012   7.590  11.576  0.00  0.00    +0.000 OA
ATOM     22  H   UNL     1      47.436   5.648  12.193  0.00  0.00    +0.000 HD
BRANCH  20  23
ATOM     23  C   UNL     1      44.997   5.234  11.516  0.00  0.00    +0.000 A 
ATOM     24  C   UNL     1      44.272   4.679  12.562  0.00  0.00    +0.000 A 
ATOM     25  S   UNL     1      43.559   3.179  12.183  0.00  0.00    +0.000 S 
ATOM     26  C   UNL     1      44.231   3.193  10.622  0.00  0.00    +0.000 A 
ATOM     27  N   UNL     1      44.029   2.156   9.765  0.00  0.00    +0.000 NA
ATOM     28  C   UNL     1      44.623   2.281   8.626  0.00  0.00    +0.000 A 
ATOM     29  N   UNL     1      45.389   3.356   8.259  0.00  0.00    +0.000 N 
ATOM     30  C   UNL     1      45.561   4.459   9.062  0.00  0.00    +0.000 A 
ATOM     31  O   UNL     1      46.130   5.462   8.651  0.00  0.00    +0.000 OA
ATOM     32  C   UNL     1      44.960   4.345  10.378  0.00  0.00    +0.000 A 
ATOM     33  H   UNL     1      45.797   3.408   7.337  0.00  0.00    +0.000 HD
ENDBRANCH  20  23
ENDBRANCH  18  19
ENDBRANCH   5  18
TORSDOF 6
ENDMDL
MODEL 7
REMARK VINA RESULT:    -6.470      4.003      9.276
REMARK INTER + INTRA:          -9.650
REMARK INTER:                  -8.687
REMARK INTRA:                  -0.963
REMARK UNBOUND:                -0.910
REMARK  Name = 
REMARK  7 active torsions:
REMARK  status: ('A' for Active; 'I' for Inactive)
REMARK    1  A    between atoms: C_1  and  O_2
REMARK    2  A    between atoms: O_2  and  C_3
REMARK    3  A    between atoms: C_8  and  C_9
REMARK    4  A    between atoms: C_9  and  N_10
REMARK    5  A    between atoms: C_14  and  C_15
REMARK    6  A    between atoms: C_15  and  N_16
REMARK    7  A    between atoms: C_17  and  C_19
REMARK                            x       y       z     vdW  Elec       q    Type
REMARK                         _______ _______ _______ _____ _____    ______ ____
ROOT
ATOM      1  N   UNL     1      42.873   8.852  10.662  0.00  0.00    +0.000 N 
ATOM      2  C   UNL     1      43.522   7.823  11.356  0.00  0.00    +0.000 A 
ATOM      3  C   UNL     1      42.912   6.569  11.350  0.00  0.00    +0.000 A 
ATOM      4  C   UNL     1      43.520   5.499  12.003  0.00  0.00    +0.000 A 
ATOM      5  C   UNL     1      44.759   5.685  12.608  0.00  0.00    +0.000 A 
ATOM      6  C   UNL     1      45.293   6.967  12.570  0.00  0.00    +0.000 A 
ATOM      7  N   UNL     1      44.703   8.030  11.966  0.00  0.00    +0.000 NA
ATOM      8  H   UNL     1      43.003   8.695   9.667  0.00  0.00    +0.000 HD
ENDROOT
BRANCH   1   9
ATOM      9  C   UNL     1      43.247  10.214  11.027  0.00  0.00    +0.000 C 
BRANCH   9  15
ATOM     10  C   UNL     1      45.193  11.609  10.086  0.00  0.00    +0.000 A 
ATOM     11  C   UNL     1      45.811  12.226   8.986  0.00  0.00    +0.000 A 
ATOM     12  C   UNL     1      45.299  12.074   7.696  0.00  0.00    +0.000 A 
ATOM     13  C   UNL     1      44.172  11.290   7.485  0.00  0.00    +0.000 A 
ATOM     14  C   UNL     1      43.547  10.678   8.570  0.00  0.00    +0.000 A 
ATOM     15  C   UNL     1      44.040  10.830   9.884  0.00  0.00    +0.000 A 
BRANCH  10  17
ATOM     16  C   UNL     1      46.861  10.969  11.654  0.00  0.00    +0.000 C 
ATOM     17  O   UNL     1      45.668  11.691  11.369  0.00  0.00    +0.000 OA
ENDBRANCH  10  17
ENDBRANCH   9  15
ENDBRANCH   1   9
BRANCH   5  18
ATOM     18  C   UNL     1      45.471   4.553  13.280  0.00  0.00    +0.000 C 
BRANCH  18  19
ATOM     19  N   UNL     1      46.245   4.999  14.410  0.00  0.00    +0.000 N 
ATOM     20  C   UNL     1      47.573   5.321  14.329  0.00  0.00    +0.000 C 
ATOM     21  O   UNL     1      48.205   5.249  13.278  0.00  0.00    +0.000 OA
ATOM     22  H   UNL     1      45.814   4.897  15.324  0.00  0.00    +0.000 HD
BRANCH  20  23
ATOM     23  C   UNL     1      48.188   5.837  15.559  0.00  0.00    +0.000 A 
ATOM     24  C   UNL     1      48.974   6.981  15.506  0.00  0.00    +0.000 A 
ATOM     25  S   UNL     1      49.584   7.466  17.022  0.00  0.00    +0.000 S 
ATOM     26  C   UNL     1      48.858   6.139  17.799  0.00  0.00    +0.000 A 
ATOM     27  N   UNL     1      49.019   5.939  19.134  0.00  0.00    +0.000 NA
ATOM     28  C   UNL     1      48.442   4.876  19.588  0.00  0.00    +0.000 A 
ATOM     29  N   UNL     1      47.706   4.003  18.830  0.00  0.00    +0.000 N 
ATOM     30  C   UNL     1      47.455   4.205  17.492  0.00  0.00    +0.000 A 
ATOM     31  O   UNL     1      46.677   3.487  16.877  0.00  0.00    +0.000 OA
ATOM     32  C   UNL     1      48.129   5.356  16.920  0.00  0.00    +0.000 A 
ATOM     33  H   UNL     1      47.249   3.210  19.255  0.00  0.00    +0.000 HD
ENDBRANCH  20  23
ENDBRANCH  18  19
ENDBRANCH   5  18
TORSDOF 6
ENDMDL
MODEL 8
REMARK VINA RESULT:    -6.403      3.598      8.021
REMARK INTER + INTRA:          -9.559
REMARK INTER:                  -8.089
REMARK INTRA:                  -1.471
REMARK UNBOUND:                -0.910
REMARK  Name = 
REMARK  7 active torsions:
REMARK  status: ('A' for Active; 'I' for Inactive)
REMARK    1  A    between atoms: C_1  and  O_2
REMARK    2  A    between atoms: O_2  and  C_3
REMARK    3  A    between atoms: C_8  and  C_9
REMARK    4  A    between atoms: C_9  and  N_10
REMARK    5  A    between atoms: C_14  and  C_15
REMARK    6  A    between atoms: C_15  and  N_16
REMARK    7  A    between atoms: C_17  and  C_19
REMARK                            x       y       z     vdW  Elec       q    Type
REMARK                         _______ _______ _______ _____ _____    ______ ____
ROOT
ATOM      1  N   UNL     1      46.537   6.574  11.053  0.00  0.00    +0.000 N 
ATOM      2  C   UNL     1      47.222   7.198  12.102  0.00  0.00    +0.000 A 
ATOM      3  C   UNL     1      48.568   6.872  12.266  0.00  0.00    +0.000 A 
ATOM      4  C   UNL     1      49.311   7.476  13.278  0.00  0.00    +0.000 A 
ATOM      5  C   UNL     1      48.710   8.442  14.078  0.00  0.00    +0.000 A 
ATOM      6  C   UNL     1      47.366   8.705  13.849  0.00  0.00    +0.000 A 
ATOM      7  N   UNL     1      46.616   8.106  12.889  0.00  0.00    +0.000 NA
ATOM      8  H   UNL     1      46.837   6.998  10.180  0.00  0.00    +0.000 HD
ENDROOT
BRANCH   1   9
ATOM      9  C   UNL     1      45.081   6.560  11.149  0.00  0.00    +0.000 C 
BRANCH   9  15
ATOM     10  C   UNL     1      44.643   4.220  10.173  0.00  0.00    +0.000 A 
ATOM     11  C   UNL     1      44.097   2.935  10.323  0.00  0.00    +0.000 A 
ATOM     12  C   UNL     1      43.521   2.537  11.532  0.00  0.00    +0.000 A 
ATOM     13  C   UNL     1      43.500   3.410  12.611  0.00  0.00    +0.000 A 
ATOM     14  C   UNL     1      44.035   4.689  12.472  0.00  0.00    +0.000 A 
ATOM     15  C   UNL     1      44.608   5.118  11.256  0.00  0.00    +0.000 A 
BRANCH  10  17
ATOM     16  C   UNL     1      45.535   3.672   8.038  0.00  0.00    +0.000 C 
ATOM     17  O   UNL     1      45.254   4.657   9.026  0.00  0.00    +0.000 OA
ENDBRANCH  10  17
ENDBRANCH   9  15
ENDBRANCH   1   9
BRANCH   5  18
ATOM     18  C   UNL     1      49.483   9.153  15.146  0.00  0.00    +0.000 C 
BRANCH  18  19
ATOM     19  N   UNL     1      49.446   8.445  16.399  0.00  0.00    +0.000 N 
ATOM     20  C   UNL     1      48.548   8.727  17.394  0.00  0.00    +0.000 C 
ATOM     21  O   UNL     1      47.706   9.616  17.288  0.00  0.00    +0.000 OA
ATOM     22  H   UNL     1      50.232   7.835  16.600  0.00  0.00    +0.000 HD
BRANCH  20  23
ATOM     23  C   UNL     1      48.595   7.853  18.574  0.00  0.00    +0.000 A 
ATOM     24  C   UNL     1      48.677   8.414  19.841  0.00  0.00    +0.000 A 
ATOM     25  S   UNL     1      48.688   7.267  21.101  0.00  0.00    +0.000 S 
ATOM     26  C   UNL     1      48.630   5.974  19.997  0.00  0.00    +0.000 A 
ATOM     27  N   UNL     1      48.645   4.685  20.430  0.00  0.00    +0.000 NA
ATOM     28  C   UNL     1      48.631   3.805  19.485  0.00  0.00    +0.000 A 
ATOM     29  N   UNL     1      48.587   4.097  18.147  0.00  0.00    +0.000 N 
ATOM     30  C   UNL     1      48.495   5.382  17.665  0.00  0.00    +0.000 A 
ATOM     31  O   UNL     1      48.313   5.603  16.475  0.00  0.00    +0.000 OA
ATOM     32  C   UNL     1      48.565   6.413  18.685  0.00  0.00    +0.000 A 
ATOM     33  H   UNL     1      48.540   3.359  17.460  0.00  0.00    +0.000 HD
ENDBRANCH  20  23
ENDBRANCH  18  19
ENDBRANCH   5  18
TORSDOF 6
ENDMDL
MODEL 9
REMARK VINA RESULT:    -6.325      2.237      3.121
REMARK INTER + INTRA:          -9.454
REMARK INTER:                  -8.602
REMARK INTRA:                  -0.853
REMARK UNBOUND:                -0.910
REMARK  Name = 
REMARK  7 active torsions:
REMARK  status: ('A' for Active; 'I' for Inactive)
REMARK    1  A    between atoms: C_1  and  O_2
REMARK    2  A    between atoms: O_2  and  C_3
REMARK    3  A    between atoms: C_8  and  C_9
REMARK    4  A    between atoms: C_9  and  N_10
REMARK    5  A    between atoms: C_14  and  C_15
REMARK    6  A    between atoms: C_15  and  N_16
REMARK    7  A    between atoms: C_17  and  C_19
REMARK                            x       y       z     vdW  Elec       q    Type
REMARK                         _______ _______ _______ _____ _____    ______ ____
ROOT
ATOM      1  N   UNL     1      50.892   5.595  17.680  0.00  0.00    +0.000 N 
ATOM      2  C   UNL     1      50.002   5.994  16.676  0.00  0.00    +0.000 A 
ATOM      3  C   UNL     1      50.344   7.126  15.937  0.00  0.00    +0.000 A 
ATOM      4  C   UNL     1      49.510   7.561  14.909  0.00  0.00    +0.000 A 
ATOM      5  C   UNL     1      48.373   6.824  14.597  0.00  0.00    +0.000 A 
ATOM      6  C   UNL     1      48.106   5.712  15.385  0.00  0.00    +0.000 A 
ATOM      7  N   UNL     1      48.887   5.288  16.411  0.00  0.00    +0.000 NA
ATOM      8  H   UNL     1      51.702   5.170  17.237  0.00  0.00    +0.000 HD
ENDROOT
BRANCH   1   9
ATOM      9  C   UNL     1      50.349   4.722  18.716  0.00  0.00    +0.000 C 
BRANCH   9  15
ATOM     10  C   UNL     1      52.632   4.065  19.705  0.00  0.00    +0.000 A 
ATOM     11  C   UNL     1      53.462   3.924  20.828  0.00  0.00    +0.000 A 
ATOM     12  C   UNL     1      53.035   4.337  22.093  0.00  0.00    +0.000 A 
ATOM     13  C   UNL     1      51.781   4.912  22.247  0.00  0.00    +0.000 A 
ATOM     14  C   UNL     1      50.947   5.052  21.140  0.00  0.00    +0.000 A 
ATOM     15  C   UNL     1      51.352   4.628  19.857  0.00  0.00    +0.000 A 
BRANCH  10  17
ATOM     16  C   UNL     1      53.022   2.321  18.136  0.00  0.00    +0.000 C 
ATOM     17  O   UNL     1      53.007   3.713  18.434  0.00  0.00    +0.000 OA
ENDBRANCH  10  17
ENDBRANCH   9  15
ENDBRANCH   1   9
BRANCH   5  18
ATOM     18  C   UNL     1      47.474   7.226  13.469  0.00  0.00    +0.000 C 
BRANCH  18  19
ATOM     19  N   UNL     1      46.668   6.127  13.004  0.00  0.00    +0.000 N 
ATOM     20  C   UNL     1      45.733   6.250  12.012  0.00  0.00    +0.000 C 
ATOM     21  O   UNL     1      45.510   7.317  11.446  0.00  0.00    +0.000 OA
ATOM     22  H   UNL     1      46.689   5.280  13.564  0.00  0.00    +0.000 HD
BRANCH  20  23
ATOM     23  C   UNL     1      45.058   5.010  11.603  0.00  0.00    +0.000 A 
ATOM     24  C   UNL     1      44.292   4.309  12.525  0.00  0.00    +0.000 A 
ATOM     25  S   UNL     1      43.551   2.915  11.884  0.00  0.00    +0.000 S 
ATOM     26  C   UNL     1      44.264   3.171  10.362  0.00  0.00    +0.000 A 
ATOM     27  N   UNL     1      44.058   2.298   9.339  0.00  0.00    +0.000 NA
ATOM     28  C   UNL     1      44.685   2.595   8.250  0.00  0.00    +0.000 A 
ATOM     29  N   UNL     1      45.488   3.693   8.086  0.00  0.00    +0.000 N 
ATOM     30  C   UNL     1      45.667   4.641   9.067  0.00  0.00    +0.000 A 
ATOM     31  O   UNL     1      46.272   5.681   8.843  0.00  0.00    +0.000 OA
ATOM     32  C   UNL     1      45.028   4.325  10.332  0.00  0.00    +0.000 A 
ATOM     33  H   UNL     1      45.921   3.886   7.195  0.00  0.00    +0.000 HD
ENDBRANCH  20  23
ENDBRANCH  18  19
ENDBRANCH   5  18
TORSDOF 6
ENDMDL
