MODEL 1
REMARK VINA RESULT:    -7.722      0.000      0.000
REMARK INTER + INTRA:         -10.228
REMARK INTER:                  -9.527
REMARK INTRA:                  -0.701
REMARK UNBOUND:                -0.701
REMARK  Name = 
REMARK  4 active torsions:
REMARK  status: ('A' for Active; 'I' for Inactive)
REMARK    1  A    between atoms: C_5  and  C_6
REMARK    2  A    between atoms: C_10  and  C_11
REMARK    3  A    between atoms: C_11  and  O_12
REMARK    4  A    between atoms: O_12  and  C_13
REMARK                            x       y       z     vdW  Elec       q    Type
REMARK                         _______ _______ _______ _____ _____    ______ ____
ROOT
ATOM      1  C   UNL     1      45.552   5.657  12.086  0.00  0.00    +0.000 A 
ATOM      2  C   UNL     1      44.356   5.802  12.808  0.00  0.00    +0.000 A 
ATOM      3  C   UNL     1      43.150   5.287  12.327  0.00  0.00    +0.000 A 
ATOM      4  C   UNL     1      43.111   4.620  11.106  0.00  0.00    +0.000 A 
ATOM      5  C   UNL     1      44.278   4.464  10.354  0.00  0.00    +0.000 A 
ATOM      6  C   UNL     1      45.490   4.960  10.863  0.00  0.00    +0.000 A 
ENDROOT
BRANCH   1  11
ATOM      7  C   UNL     1      48.750   7.695  12.258  0.00  0.00    +0.000 A 
ATOM      8  C   UNL     1      49.238   7.245  13.469  0.00  0.00    +0.000 A 
ATOM      9  N   UNL     1      48.594   6.354  14.246  0.00  0.00    +0.000 NA
ATOM     10  C   UNL     1      47.408   5.887  13.777  0.00  0.00    +0.000 A 
ATOM     11  C   UNL     1      46.819   6.250  12.565  0.00  0.00    +0.000 A 
ATOM     12  C   UNL     1      47.531   7.192  11.805  0.00  0.00    +0.000 A 
ENDBRANCH   1  11
BRANCH   5  13
ATOM     13  C   UNL     1      44.244   3.787   9.004  0.00  0.00    +0.000 C 
BRANCH  13  14
ATOM     14  O   UNL     1      45.340   4.254   8.221  0.00  0.00    +0.000 OA
BRANCH  14  15
ATOM     15  C   UNL     1      46.107   3.305   7.601  0.00  0.00    +0.000 A 
ATOM     16  C   UNL     1      46.864   3.483   6.448  0.00  0.00    +0.000 A 
ATOM     17  C   UNL     1      47.594   2.403   5.972  0.00  0.00    +0.000 A 
ATOM     18  N   UNL     1      47.612   1.187   6.556  0.00  0.00    +0.000 NA
ATOM     19  C   UNL     1      46.864   1.041   7.669  0.00  0.00    +0.000 A 
ATOM     20  C   UNL     1      46.103   2.058   8.221  0.00  0.00    +0.000 A 
ENDBRANCH  14  15
ENDBRANCH  13  14
ENDBRANCH   5  13
TORSDOF 4
ENDMDL
MODEL 2
REMARK VINA RESULT:    -7.588      1.459      1.654
REMARK INTER + INTRA:         -10.064
REMARK INTER:                  -9.358
REMARK INTRA:                  -0.705
REMARK UNBOUND:                -0.701
REMARK  Name = 
REMARK  4 active torsions:
REMARK  status: ('A' for Active; 'I' for Inactive)
REMARK    1  A    between atoms: C_5  and  C_6
REMARK    2  A    between atoms: C_10  and  C_11
REMARK    3  A    between atoms: C_11  and  O_12
REMARK    4  A    between atoms: O_12  and  C_13
REMARK                            x       y       z     vdW  Elec       q    Type
REMARK                         _______ _______ _______ _____ _____    ______ ____
ROOT
ATOM      1  C   UNL     1      45.094   5.426  11.937  0.00  0.00    +0.000 A 
ATOM      2  C   UNL     1      44.267   5.055  13.010  0.00  0.00    +0.000 A 
ATOM      3  C   UNL     1      43.491   3.896  12.962  0.00  0.00    +0.000 A 
ATOM      4  C   UNL     1      43.517   3.082  11.833  0.00  0.00    +0.000 A 
ATOM      5  C   UNL     1      44.318   3.422  10.741  0.00  0.00    +0.000 A 
ATOM      6  C   UNL     1      45.118   4.576  10.813  0.00  0.00    +0.000 A 
ENDROOT
BRANCH   1  11
ATOM      7  C   UNL     1      47.986   7.883  12.040  0.00  0.00    +0.000 A 
ATOM      8  C   UNL     1      47.274   9.064  12.115  0.00  0.00    +0.000 A 
ATOM      9  N   UNL     1      45.930   9.125  12.104  0.00  0.00    +0.000 NA
ATOM     10  C   UNL     1      45.270   7.940  12.024  0.00  0.00    +0.000 A 
ATOM     11  C   UNL     1      45.873   6.682  11.962  0.00  0.00    +0.000 A 
ATOM     12  C   UNL     1      47.278   6.684  11.963  0.00  0.00    +0.000 A 
ENDBRANCH   1  11
BRANCH   5  13
ATOM     13  C   UNL     1      44.320   2.578   9.488  0.00  0.00    +0.000 C 
BRANCH  13  14
ATOM     14  O   UNL     1      44.849   3.345   8.410  0.00  0.00    +0.000 OA
BRANCH  14  15
ATOM     15  C   UNL     1      45.871   2.783   7.694  0.00  0.00    +0.000 A 
ATOM     16  C   UNL     1      46.570   3.380   6.649  0.00  0.00    +0.000 A 
ATOM     17  C   UNL     1      47.591   2.657   6.048  0.00  0.00    +0.000 A 
ATOM     18  N   UNL     1      47.947   1.408   6.411  0.00  0.00    +0.000 NA
ATOM     19  C   UNL     1      47.249   0.852   7.423  0.00  0.00    +0.000 A 
ATOM     20  C   UNL     1      46.215   1.492   8.085  0.00  0.00    +0.000 A 
ENDBRANCH  14  15
ENDBRANCH  13  14
ENDBRANCH   5  13
TORSDOF 4
ENDMDL
MODEL 3
REMARK VINA RESULT:    -7.376      1.554      6.202
REMARK INTER + INTRA:          -9.802
REMARK INTER:                  -9.008
REMARK INTRA:                  -0.794
REMARK UNBOUND:                -0.701
REMARK  Name = 
REMARK  4 active torsions:
REMARK  status: ('A' for Active; 'I' for Inactive)
REMARK    1  A    between atoms: C_5  and  C_6
REMARK    2  A    between atoms: C_10  and  C_11
REMARK    3  A    between atoms: C_11  and  O_12
REMARK    4  A    between atoms: O_12  and  C_13
REMARK                            x       y       z     vdW  Elec       q    Type
REMARK                         _______ _______ _______ _____ _____    ______ ____
ROOT
ATOM      1  C   UNL     1      44.970   3.075   9.210  0.00  0.00    +0.000 A 
ATOM      2  C   UNL     1      44.272   2.107   9.951  0.00  0.00    +0.000 A 
ATOM      3  C   UNL     1      43.463   2.463  11.032  0.00  0.00    +0.000 A 
ATOM      4  C   UNL     1      43.340   3.798  11.404  0.00  0.00    +0.000 A 
ATOM      5  C   UNL     1      44.027   4.790  10.699  0.00  0.00    +0.000 A 
ATOM      6  C   UNL     1      44.813   4.422   9.594  0.00  0.00    +0.000 A 
ENDROOT
BRANCH   1  11
ATOM      7  C   UNL     1      46.969   3.173   5.984  0.00  0.00    +0.000 A 
ATOM      8  C   UNL     1      47.483   1.891   6.000  0.00  0.00    +0.000 A 
ATOM      9  N   UNL     1      47.255   1.010   6.992  0.00  0.00    +0.000 NA
ATOM     10  C   UNL     1      46.463   1.435   8.010  0.00  0.00    +0.000 A 
ATOM     11  C   UNL     1      45.871   2.697   8.101  0.00  0.00    +0.000 A 
ATOM     12  C   UNL     1      46.157   3.576   7.044  0.00  0.00    +0.000 A 
ENDBRANCH   1  11
BRANCH   5  13
ATOM     13  C   UNL     1      43.944   6.238  11.120  0.00  0.00    +0.000 C 
BRANCH  13  14
ATOM     14  O   UNL     1      44.256   6.338  12.507  0.00  0.00    +0.000 OA
BRANCH  14  15
ATOM     15  C   UNL     1      45.541   6.041  12.874  0.00  0.00    +0.000 A 
ATOM     16  C   UNL     1      45.935   5.033  13.749  0.00  0.00    +0.000 A 
ATOM     17  C   UNL     1      47.291   4.870  13.990  0.00  0.00    +0.000 A 
ATOM     18  N   UNL     1      48.255   5.633  13.433  0.00  0.00    +0.000 NA
ATOM     19  C   UNL     1      47.844   6.605  12.593  0.00  0.00    +0.000 A 
ATOM     20  C   UNL     1      46.515   6.845  12.289  0.00  0.00    +0.000 A 
ENDBRANCH  14  15
ENDBRANCH  13  14
ENDBRANCH   5  13
TORSDOF 4
ENDMDL
MODEL 4
REMARK VINA RESULT:    -7.161      1.503      2.361
REMARK INTER + INTRA:          -9.537
REMARK INTER:                  -8.825
REMARK INTRA:                  -0.712
REMARK UNBOUND:                -0.701
REMARK  Name = 
REMARK  4 active torsions:
REMARK  status: ('A' for Active; 'I' for Inactive)
REMARK    1  A    between atoms: C_5  and  C_6
REMARK    2  A    between atoms: C_10  and  C_11
REMARK    3  A    between atoms: C_11  and  O_12
REMARK    4  A    between atoms: O_12  and  C_13
REMARK                            x       y       z     vdW  Elec       q    Type
REMARK                         _______ _______ _______ _____ _____    ______ ____
ROOT
ATOM      1  C   UNL     1      46.401   5.220  12.903  0.00  0.00    +0.000 A 
ATOM      2  C   UNL     1      46.327   6.451  12.231  0.00  0.00    +0.000 A 
ATOM      3  C   UNL     1      45.704   6.564  10.987  0.00  0.00    +0.000 A 
ATOM      4  C   UNL     1      45.147   5.443  10.379  0.00  0.00    +0.000 A 
ATOM      5  C   UNL     1      45.209   4.198  11.010  0.00  0.00    +0.000 A 
ATOM      6  C   UNL     1      45.811   4.103  12.277  0.00  0.00    +0.000 A 
ENDROOT
BRANCH   1  11
ATOM      7  C   UNL     1      47.511   3.938  16.300  0.00  0.00    +0.000 A 
ATOM      8  C   UNL     1      48.388   4.948  16.644  0.00  0.00    +0.000 A 
ATOM      9  N   UNL     1      48.669   5.995  15.846  0.00  0.00    +0.000 NA
ATOM     10  C   UNL     1      48.028   6.033  14.649  0.00  0.00    +0.000 A 
ATOM     11  C   UNL     1      47.108   5.086  14.194  0.00  0.00    +0.000 A 
ATOM     12  C   UNL     1      46.868   4.011  15.065  0.00  0.00    +0.000 A 
ENDBRANCH   1  11
BRANCH   5  13
ATOM     13  C   UNL     1      44.653   2.962  10.342  0.00  0.00    +0.000 C 
BRANCH  13  14
ATOM     14  O   UNL     1      44.632   3.165   8.932  0.00  0.00    +0.000 OA
BRANCH  14  15
ATOM     15  C   UNL     1      45.689   2.667   8.219  0.00  0.00    +0.000 A 
ATOM     16  C   UNL     1      46.570   3.401   7.432  0.00  0.00    +0.000 A 
ATOM     17  C   UNL     1      47.597   2.722   6.792  0.00  0.00    +0.000 A 
ATOM     18  N   UNL     1      47.793   1.390   6.882  0.00  0.00    +0.000 NA
ATOM     19  C   UNL     1      46.921   0.703   7.648  0.00  0.00    +0.000 A 
ATOM     20  C   UNL     1      45.866   1.291   8.325  0.00  0.00    +0.000 A 
ENDBRANCH  14  15
ENDBRANCH  13  14
ENDBRANCH   5  13
TORSDOF 4
ENDMDL
MODEL 5
REMARK VINA RESULT:    -6.414      2.448      6.603
REMARK INTER + INTRA:          -8.615
REMARK INTER:                  -7.933
REMARK INTRA:                  -0.682
REMARK UNBOUND:                -0.701
REMARK  Name = 
REMARK  4 active torsions:
REMARK  status: ('A' for Active; 'I' for Inactive)
REMARK    1  A    between atoms: C_5  and  C_6
REMARK    2  A    between atoms: C_10  and  C_11
REMARK    3  A    between atoms: C_11  and  O_12
REMARK    4  A    between atoms: O_12  and  C_13
REMARK                            x       y       z     vdW  Elec       q    Type
REMARK                         _______ _______ _______ _____ _____    ______ ____
ROOT
ATOM      1  C   UNL     1      44.946   3.253   9.948  0.00  0.00    +0.000 A 
ATOM      2  C   UNL     1      43.936   2.400  10.423  0.00  0.00    +0.000 A 
ATOM      3  C   UNL     1      43.316   2.624  11.653  0.00  0.00    +0.000 A 
ATOM      4  C   UNL     1      43.698   3.704  12.444  0.00  0.00    +0.000 A 
ATOM      5  C   UNL     1      44.706   4.569  12.011  0.00  0.00    +0.000 A 
ATOM      6  C   UNL     1      45.301   4.351  10.756  0.00  0.00    +0.000 A 
ENDROOT
BRANCH   1  11
ATOM      7  C   UNL     1      46.825   1.498   7.154  0.00  0.00    +0.000 A 
ATOM      8  C   UNL     1      47.035   2.575   6.315  0.00  0.00    +0.000 A 
ATOM      9  N   UNL     1      46.587   3.818   6.572  0.00  0.00    +0.000 NA
ATOM     10  C   UNL     1      45.906   3.988   7.735  0.00  0.00    +0.000 A 
ATOM     11  C   UNL     1      45.644   2.987   8.672  0.00  0.00    +0.000 A 
ATOM     12  C   UNL     1      46.124   1.709   8.341  0.00  0.00    +0.000 A 
ENDBRANCH   1  11
BRANCH   5  13
ATOM     13  C   UNL     1      45.167   5.717  12.878  0.00  0.00    +0.000 C 
BRANCH  13  14
ATOM     14  O   UNL     1      46.182   6.442  12.189  0.00  0.00    +0.000 OA
BRANCH  14  15
ATOM     15  C   UNL     1      45.995   7.791  12.053  0.00  0.00    +0.000 A 
ATOM     16  C   UNL     1      46.915   8.786  12.368  0.00  0.00    +0.000 A 
ATOM     17  C   UNL     1      46.551  10.106  12.147  0.00  0.00    +0.000 A 
ATOM     18  N   UNL     1      45.357  10.488  11.648  0.00  0.00    +0.000 NA
ATOM     19  C   UNL     1      44.483   9.503  11.356  0.00  0.00    +0.000 A 
ATOM     20  C   UNL     1      44.753   8.158  11.541  0.00  0.00    +0.000 A 
ENDBRANCH  14  15
ENDBRANCH  13  14
ENDBRANCH   5  13
TORSDOF 4
ENDMDL
MODEL 6
REMARK VINA RESULT:    -6.249      3.011      7.188
REMARK INTER + INTRA:          -8.412
REMARK INTER:                  -7.713
REMARK INTRA:                  -0.699
REMARK UNBOUND:                -0.701
REMARK  Name = 
REMARK  4 active torsions:
REMARK  status: ('A' for Active; 'I' for Inactive)
REMARK    1  A    between atoms: C_5  and  C_6
REMARK    2  A    between atoms: C_10  and  C_11
REMARK    3  A    between atoms: C_11  and  O_12
REMARK    4  A    between atoms: O_12  and  C_13
REMARK                            x       y       z     vdW  Elec       q    Type
REMARK                         _______ _______ _______ _____ _____    ______ ____
ROOT
ATOM      1  C   UNL     1      45.554   6.169  11.315  0.00  0.00    +0.000 A 
ATOM      2  C   UNL     1      44.798   7.352  11.285  0.00  0.00    +0.000 A 
ATOM      3  C   UNL     1      45.096   8.427  12.124  0.00  0.00    +0.000 A 
ATOM      4  C   UNL     1      46.156   8.341  13.022  0.00  0.00    +0.000 A 
ATOM      5  C   UNL     1      46.927   7.178  13.089  0.00  0.00    +0.000 A 
ATOM      6  C   UNL     1      46.635   6.114  12.218  0.00  0.00    +0.000 A 
ENDROOT
BRANCH   1  11
ATOM      7  C   UNL     1      45.245   3.827   8.344  0.00  0.00    +0.000 A 
ATOM      8  C   UNL     1      44.433   2.861   8.904  0.00  0.00    +0.000 A 
ATOM      9  N   UNL     1      44.003   2.897  10.179  0.00  0.00    +0.000 NA
ATOM     10  C   UNL     1      44.402   3.961  10.923  0.00  0.00    +0.000 A 
ATOM     11  C   UNL     1      45.206   5.008  10.469  0.00  0.00    +0.000 A 
ATOM     12  C   UNL     1      45.633   4.908   9.135  0.00  0.00    +0.000 A 
ENDBRANCH   1  11
BRANCH   5  13
ATOM     13  C   UNL     1      48.049   7.049  14.092  0.00  0.00    +0.000 C 
BRANCH  13  14
ATOM     14  O   UNL     1      48.294   5.667  14.341  0.00  0.00    +0.000 OA
BRANCH  14  15
ATOM     15  C   UNL     1      48.034   5.212  15.605  0.00  0.00    +0.000 A 
ATOM     16  C   UNL     1      47.237   4.122  15.940  0.00  0.00    +0.000 A 
ATOM     17  C   UNL     1      47.101   3.799  17.283  0.00  0.00    +0.000 A 
ATOM     18  N   UNL     1      47.692   4.479  18.287  0.00  0.00    +0.000 NA
ATOM     19  C   UNL     1      48.454   5.534  17.934  0.00  0.00    +0.000 A 
ATOM     20  C   UNL     1      48.650   5.935  16.623  0.00  0.00    +0.000 A 
ENDBRANCH  14  15
ENDBRANCH  13  14
ENDBRANCH   5  13
TORSDOF 4
ENDMDL
MODEL 7
REMARK VINA RESULT:    -5.987      1.471      2.427
REMARK INTER + INTRA:          -8.089
REMARK INTER:                  -7.401
REMARK INTRA:                  -0.688
REMARK UNBOUND:                -0.701
REMARK  Name = 
REMARK  4 active torsions:
REMARK  status: ('A' for Active; 'I' for Inactive)
REMARK    1  A    between atoms: C_5  and  C_6
REMARK    2  A    between atoms: C_10  and  C_11
REMARK    3  A    between atoms: C_11  and  O_12
REMARK    4  A    between atoms: O_12  and  C_13
REMARK                            x       y       z     vdW  Elec       q    Type
REMARK                         _______ _______ _______ _____ _____    ______ ____
ROOT
ATOM      1  C   UNL     1      47.442   6.475  12.769  0.00  0.00    +0.000 A 
ATOM      2  C   UNL     1      47.479   5.683  13.929  0.00  0.00    +0.000 A 
ATOM      3  C   UNL     1      46.556   4.656  14.137  0.00  0.00    +0.000 A 
ATOM      4  C   UNL     1      45.567   4.401  13.191  0.00  0.00    +0.000 A 
ATOM      5  C   UNL     1      45.491   5.173  12.029  0.00  0.00    +0.000 A 
ATOM      6  C   UNL     1      46.445   6.184  11.817  0.00  0.00    +0.000 A 
ENDROOT
BRANCH   1  11
ATOM      7  C   UNL     1      48.974   9.738  11.579  0.00  0.00    +0.000 A 
ATOM      8  C   UNL     1      50.224   9.621  12.155  0.00  0.00    +0.000 A 
ATOM      9  N   UNL     1      50.596   8.581  12.924  0.00  0.00    +0.000 NA
ATOM     10  C   UNL     1      49.669   7.606  13.112  0.00  0.00    +0.000 A 
ATOM     11  C   UNL     1      48.382   7.598  12.572  0.00  0.00    +0.000 A 
ATOM     12  C   UNL     1      48.048   8.717  11.791  0.00  0.00    +0.000 A 
ENDBRANCH   1  11
BRANCH   5  13
ATOM     13  C   UNL     1      44.394   4.942  11.016  0.00  0.00    +0.000 C 
BRANCH  13  14
ATOM     14  O   UNL     1      44.902   5.211   9.712  0.00  0.00    +0.000 OA
BRANCH  14  15
ATOM     15  C   UNL     1      45.384   4.143   9.004  0.00  0.00    +0.000 A 
ATOM     16  C   UNL     1      46.216   4.201   7.890  0.00  0.00    +0.000 A 
ATOM     17  C   UNL     1      46.617   3.006   7.310  0.00  0.00    +0.000 A 
ATOM     18  N   UNL     1      46.247   1.788   7.757  0.00  0.00    +0.000 NA
ATOM     19  C   UNL     1      45.437   1.761   8.835  0.00  0.00    +0.000 A 
ATOM     20  C   UNL     1      44.984   2.898   9.483  0.00  0.00    +0.000 A 
ENDBRANCH  14  15
ENDBRANCH  13  14
ENDBRANCH   5  13
TORSDOF 4
ENDMDL
MODEL 8
REMARK VINA RESULT:    -5.902      3.616      7.544
REMARK INTER + INTRA:          -7.983
REMARK INTER:                  -7.252
REMARK INTRA:                  -0.731
REMARK UNBOUND:                -0.701
REMARK  Name = 
REMARK  4 active torsions:
REMARK  status: ('A' for Active; 'I' for Inactive)
REMARK    1  A    between atoms: C_5  and  C_6
REMARK    2  A    between atoms: C_10  and  C_11
REMARK    3  A    between atoms: C_11  and  O_12
REMARK    4  A    between atoms: O_12  and  C_13
REMARK                            x       y       z     vdW  Elec       q    Type
REMARK                         _______ _______ _______ _____ _____    ______ ____
ROOT
ATOM      1  C   UNL     1      45.686   6.391  12.465  0.00  0.00    +0.000 A 
ATOM      2  C   UNL     1      45.142   7.663  12.220  0.00  0.00    +0.000 A 
ATOM      3  C   UNL     1      45.795   8.825  12.634  0.00  0.00    +0.000 A 
ATOM      4  C   UNL     1      47.008   8.742  13.312  0.00  0.00    +0.000 A 
ATOM      5  C   UNL     1      47.577   7.495  13.584  0.00  0.00    +0.000 A 
ATOM      6  C   UNL     1      46.924   6.334  13.135  0.00  0.00    +0.000 A 
ENDROOT
BRANCH   1  11
ATOM      7  C   UNL     1      44.092   3.635  10.396  0.00  0.00    +0.000 A 
ATOM      8  C   UNL     1      43.525   2.892  11.413  0.00  0.00    +0.000 A 
ATOM      9  N   UNL     1      43.646   3.200  12.718  0.00  0.00    +0.000 NA
ATOM     10  C   UNL     1      44.363   4.315  13.012  0.00  0.00    +0.000 A 
ATOM     11  C   UNL     1      44.969   5.157  12.078  0.00  0.00    +0.000 A 
ATOM     12  C   UNL     1      44.819   4.776  10.735  0.00  0.00    +0.000 A 
ENDBRANCH   1  11
BRANCH   5  13
ATOM     13  C   UNL     1      48.867   7.385  14.362  0.00  0.00    +0.000 C 
BRANCH  13  14
ATOM     14  O   UNL     1      48.971   6.072  14.906  0.00  0.00    +0.000 OA
BRANCH  14  15
ATOM     15  C   UNL     1      48.545   5.902  16.196  0.00  0.00    +0.000 A 
ATOM     16  C   UNL     1      48.778   6.766  17.261  0.00  0.00    +0.000 A 
ATOM     17  C   UNL     1      48.251   6.433  18.501  0.00  0.00    +0.000 A 
ATOM     18  N   UNL     1      47.528   5.320  18.740  0.00  0.00    +0.000 NA
ATOM     19  C   UNL     1      47.322   4.497  17.691  0.00  0.00    +0.000 A 
ATOM     20  C   UNL     1      47.807   4.743  16.417  0.00  0.00    +0.000 A 
ENDBRANCH  14  15
ENDBRANCH  13  14
ENDBRANCH   5  13
TORSDOF 4
ENDMDL
MODEL 9
REMARK VINA RESULT:    -5.648      3.900      8.151
REMARK INTER + INTRA:          -7.671
REMARK INTER:                  -7.076
REMARK INTRA:                  -0.595
REMARK UNBOUND:                -0.701
REMARK  Name = 
REMARK  4 active torsions:
REMARK  status: ('A' for Active; 'I' for Inactive)
REMARK    1  A    between atoms: C_5  and  C_6
REMARK    2  A    between atoms: C_10  and  C_11
REMARK    3  A    between atoms: C_11  and  O_12
REMARK    4  A    between atoms: O_12  and  C_13
REMARK                            x       y       z     vdW  Elec       q    Type
REMARK                         _______ _______ _______ _____ _____    ______ ____
ROOT
ATOM      1  C   UNL     1      46.644   5.921  12.377  0.00  0.00    +0.000 A 
ATOM      2  C   UNL     1      47.119   6.870  11.457  0.00  0.00    +0.000 A 
ATOM      3  C   UNL     1      48.153   7.748  11.786  0.00  0.00    +0.000 A 
ATOM      4  C   UNL     1      48.733   7.703  13.051  0.00  0.00    +0.000 A 
ATOM      5  C   UNL     1      48.282   6.781  13.998  0.00  0.00    +0.000 A 
ATOM      6  C   UNL     1      47.260   5.882  13.644  0.00  0.00    +0.000 A 
ENDROOT
BRANCH   1  11
ATOM      7  C   UNL     1      43.648   4.375  10.631  0.00  0.00    +0.000 A 
ATOM      8  C   UNL     1      43.339   3.391  11.548  0.00  0.00    +0.000 A 
ATOM      9  N   UNL     1      44.045   3.172  12.673  0.00  0.00    +0.000 NA
ATOM     10  C   UNL     1      45.107   3.990  12.890  0.00  0.00    +0.000 A 
ATOM     11  C   UNL     1      45.511   5.029  12.051  0.00  0.00    +0.000 A 
ATOM     12  C   UNL     1      44.744   5.200  10.887  0.00  0.00    +0.000 A 
ENDBRANCH   1  11
BRANCH   5  13
ATOM     13  C   UNL     1      48.866   6.752  15.391  0.00  0.00    +0.000 C 
BRANCH  13  14
ATOM     14  O   UNL     1      48.834   5.414  15.881  0.00  0.00    +0.000 OA
BRANCH  14  15
ATOM     15  C   UNL     1      48.874   5.252  17.239  0.00  0.00    +0.000 A 
ATOM     16  C   UNL     1      47.885   5.627  18.143  0.00  0.00    +0.000 A 
ATOM     17  C   UNL     1      48.097   5.367  19.490  0.00  0.00    +0.000 A 
ATOM     18  N   UNL     1      49.206   4.775  19.979  0.00  0.00    +0.000 NA
ATOM     19  C   UNL     1      50.150   4.427  19.081  0.00  0.00    +0.000 A 
ATOM     20  C   UNL     1      50.031   4.644  17.719  0.00  0.00    +0.000 A 
ENDBRANCH  14  15
ENDBRANCH  13  14
ENDBRANCH   5  13
TORSDOF 4
ENDMDL
