MODEL 1
REMARK VINA RESULT:    -8.900      0.000      0.000
REMARK INTER + INTRA:         -12.132
REMARK INTER:                 -11.501
REMARK INTRA:                  -0.630
REMARK UNBOUND:                -0.630
REMARK  Name = 
REMARK  5 active torsions:
REMARK  status: ('A' for Active; 'I' for Inactive)
REMARK    1  A    between atoms: C_2  and  C_18
REMARK    2  A    between atoms: N_3  and  C_4
REMARK    3  A    between atoms: C_4  and  C_5
REMARK    4  A    between atoms: N_8  and  C_9
REMARK    5  A    between atoms: C_9  and  C_10
REMARK                            x       y       z     vdW  Elec       q    Type
REMARK                         _______ _______ _______ _____ _____    ______ ____
ROOT
ATOM      1  O   UNL     1      46.873   3.503  14.054  0.00  0.00    +0.000 OA
ATOM      2  C   UNL     1      46.788   4.660  14.452  0.00  0.00    +0.000 C 
ATOM      3  N   UNL     1      45.822   5.538  14.040  0.00  0.00    +0.000 N 
ATOM      4  H   UNL     1      45.774   6.448  14.478  0.00  0.00    +0.000 HD
ENDROOT
BRANCH   2   5
ATOM      5  C   UNL     1      47.778   5.241  15.365  0.00  0.00    +0.000 A 
ATOM      6  C   UNL     1      48.640   6.239  14.943  0.00  0.00    +0.000 A 
ATOM      7  S   UNL     1      49.633   6.843  16.194  0.00  0.00    +0.000 S 
ATOM      8  C   UNL     1      48.987   5.742  17.321  0.00  0.00    +0.000 A 
ATOM      9  N   UNL     1      49.404   5.729  18.616  0.00  0.00    +0.000 NA
ATOM     10  C   UNL     1      48.850   4.816  19.345  0.00  0.00    +0.000 A 
ATOM     11  N   UNL     1      47.929   3.905  18.892  0.00  0.00    +0.000 N 
ATOM     12  C   UNL     1      47.466   3.893  17.598  0.00  0.00    +0.000 A 
ATOM     13  O   UNL     1      46.618   3.084  17.235  0.00  0.00    +0.000 OA
ATOM     14  C   UNL     1      48.040   4.917  16.748  0.00  0.00    +0.000 A 
ATOM     15  H   UNL     1      47.540   3.213  19.516  0.00  0.00    +0.000 HD
ENDBRANCH   2   5
BRANCH   3  16
ATOM     16  C   UNL     1      44.671   5.148  13.259  0.00  0.00    +0.000 C 
BRANCH  16  17
ATOM     17  C   UNL     1      44.440   6.046  12.031  0.00  0.00    +0.000 C 
ATOM     18  C   UNL     1      43.156   5.717  11.259  0.00  0.00    +0.000 C 
ATOM     19  C   UNL     1      43.217   4.348  10.577  0.00  0.00    +0.000 C 
ATOM     20  N   UNL     1      44.413   4.155   9.738  0.00  0.00    +0.000 NA
ATOM     21  C   UNL     1      45.665   4.533  10.410  0.00  0.00    +0.000 C 
ATOM     22  C   UNL     1      45.604   5.927  11.041  0.00  0.00    +0.000 C 
BRANCH  20  23
ATOM     23  C   UNL     1      44.510   2.734   9.306  0.00  0.00    +0.000 C 
BRANCH  23  24
ATOM     24  C   UNL     1      45.576   2.466   8.258  0.00  0.00    +0.000 A 
ATOM     25  C   UNL     1      45.833   3.410   7.266  0.00  0.00    +0.000 A 
ATOM     26  C   UNL     1      46.769   3.110   6.280  0.00  0.00    +0.000 A 
ATOM     27  C   UNL     1      47.429   1.888   6.318  0.00  0.00    +0.000 A 
ATOM     28  C   UNL     1      47.130   1.013   7.348  0.00  0.00    +0.000 A 
ATOM     29  N   UNL     1      46.221   1.270   8.313  0.00  0.00    +0.000 NA
ENDBRANCH  23  24
ENDBRANCH  20  23
ENDBRANCH  16  17
ENDBRANCH   3  16
TORSDOF 5
ENDMDL
MODEL 2
REMARK VINA RESULT:    -8.195      1.603      2.289
REMARK INTER + INTRA:         -11.221
REMARK INTER:                 -10.972
REMARK INTRA:                  -0.249
REMARK UNBOUND:                -0.630
REMARK  Name = 
REMARK  5 active torsions:
REMARK  status: ('A' for Active; 'I' for Inactive)
REMARK    1  A    between atoms: C_2  and  C_18
REMARK    2  A    between atoms: N_3  and  C_4
REMARK    3  A    between atoms: C_4  and  C_5
REMARK    4  A    between atoms: N_8  and  C_9
REMARK    5  A    between atoms: C_9  and  C_10
REMARK                            x       y       z     vdW  Elec       q    Type
REMARK                         _______ _______ _______ _____ _____    ______ ____
ROOT
ATOM      1  O   UNL     1      47.715   3.056  15.368  0.00  0.00    +0.000 OA
ATOM      2  C   UNL     1      47.352   4.219  15.511  0.00  0.00    +0.000 C 
ATOM      3  N   UNL     1      46.570   4.888  14.608  0.00  0.00    +0.000 N 
ATOM      4  H   UNL     1      46.248   5.818  14.839  0.00  0.00    +0.000 HD
ENDROOT
BRANCH   2   5
ATOM      5  C   UNL     1      47.791   5.036  16.647  0.00  0.00    +0.000 A 
ATOM      6  C   UNL     1      47.317   4.794  17.926  0.00  0.00    +0.000 A 
ATOM      7  S   UNL     1      48.041   5.791  19.109  0.00  0.00    +0.000 S 
ATOM      8  C   UNL     1      48.958   6.620  17.938  0.00  0.00    +0.000 A 
ATOM      9  N   UNL     1      49.817   7.616  18.287  0.00  0.00    +0.000 NA
ATOM     10  C   UNL     1      50.417   8.177  17.288  0.00  0.00    +0.000 A 
ATOM     11  N   UNL     1      50.225   7.841  15.972  0.00  0.00    +0.000 N 
ATOM     12  C   UNL     1      49.382   6.830  15.574  0.00  0.00    +0.000 A 
ATOM     13  O   UNL     1      49.259   6.534  14.390  0.00  0.00    +0.000 OA
ATOM     14  C   UNL     1      48.706   6.153  16.663  0.00  0.00    +0.000 A 
ATOM     15  H   UNL     1      50.724   8.324  15.239  0.00  0.00    +0.000 HD
ENDBRANCH   2   5
BRANCH   3  16
ATOM     16  C   UNL     1      45.910   4.246  13.495  0.00  0.00    +0.000 C 
BRANCH  16  17
ATOM     17  C   UNL     1      44.935   5.176  12.750  0.00  0.00    +0.000 C 
ATOM     18  C   UNL     1      43.529   4.588  12.581  0.00  0.00    +0.000 C 
ATOM     19  C   UNL     1      43.509   3.378  11.643  0.00  0.00    +0.000 C 
ATOM     20  N   UNL     1      44.148   3.627  10.338  0.00  0.00    +0.000 NA
ATOM     21  C   UNL     1      45.468   4.265  10.446  0.00  0.00    +0.000 C 
ATOM     22  C   UNL     1      45.458   5.504  11.347  0.00  0.00    +0.000 C 
BRANCH  20  23
ATOM     23  C   UNL     1      44.291   2.350   9.587  0.00  0.00    +0.000 C 
BRANCH  23  24
ATOM     24  C   UNL     1      45.351   2.375   8.499  0.00  0.00    +0.000 A 
ATOM     25  C   UNL     1      45.428   3.457   7.624  0.00  0.00    +0.000 A 
ATOM     26  C   UNL     1      46.366   3.424   6.597  0.00  0.00    +0.000 A 
ATOM     27  C   UNL     1      47.205   2.323   6.477  0.00  0.00    +0.000 A 
ATOM     28  C   UNL     1      47.077   1.298   7.398  0.00  0.00    +0.000 A 
ATOM     29  N   UNL     1      46.171   1.296   8.400  0.00  0.00    +0.000 NA
ENDBRANCH  23  24
ENDBRANCH  20  23
ENDBRANCH  16  17
ENDBRANCH   3  16
TORSDOF 5
ENDMDL
MODEL 3
REMARK VINA RESULT:    -7.910      1.924      2.346
REMARK INTER + INTRA:         -10.852
REMARK INTER:                 -10.711
REMARK INTRA:                  -0.142
REMARK UNBOUND:                -0.630
REMARK  Name = 
REMARK  5 active torsions:
REMARK  status: ('A' for Active; 'I' for Inactive)
REMARK    1  A    between atoms: C_2  and  C_18
REMARK    2  A    between atoms: N_3  and  C_4
REMARK    3  A    between atoms: C_4  and  C_5
REMARK    4  A    between atoms: N_8  and  C_9
REMARK    5  A    between atoms: C_9  and  C_10
REMARK                            x       y       z     vdW  Elec       q    Type
REMARK                         _______ _______ _______ _____ _____    ______ ____
ROOT
ATOM      1  O   UNL     1      46.388   3.749  16.646  0.00  0.00    +0.000 OA
ATOM      2  C   UNL     1      47.328   4.274  16.059  0.00  0.00    +0.000 C 
ATOM      3  N   UNL     1      47.342   4.523  14.713  0.00  0.00    +0.000 N 
ATOM      4  H   UNL     1      48.122   5.033  14.321  0.00  0.00    +0.000 HD
ENDROOT
BRANCH   2   5
ATOM      5  C   UNL     1      48.577   4.621  16.747  0.00  0.00    +0.000 A 
ATOM      6  C   UNL     1      48.807   5.910  17.200  0.00  0.00    +0.000 A 
ATOM      7  S   UNL     1      50.272   6.065  18.065  0.00  0.00    +0.000 S 
ATOM      8  C   UNL     1      50.671   4.431  17.801  0.00  0.00    +0.000 A 
ATOM      9  N   UNL     1      51.821   3.896  18.295  0.00  0.00    +0.000 NA
ATOM     10  C   UNL     1      52.007   2.654  17.984  0.00  0.00    +0.000 A 
ATOM     11  N   UNL     1      51.155   1.905  17.212  0.00  0.00    +0.000 N 
ATOM     12  C   UNL     1      49.975   2.399  16.708  0.00  0.00    +0.000 A 
ATOM     13  O   UNL     1      49.221   1.691  16.049  0.00  0.00    +0.000 OA
ATOM     14  C   UNL     1      49.710   3.782  17.053  0.00  0.00    +0.000 A 
ATOM     15  H   UNL     1      51.364   0.939  17.004  0.00  0.00    +0.000 HD
ENDBRANCH   2   5
BRANCH   3  16
ATOM     16  C   UNL     1      46.178   4.394  13.866  0.00  0.00    +0.000 C 
BRANCH  16  17
ATOM     17  C   UNL     1      45.715   5.734  13.267  0.00  0.00    +0.000 C 
ATOM     18  C   UNL     1      44.193   5.847  13.112  0.00  0.00    +0.000 C 
ATOM     19  C   UNL     1      43.637   4.881  12.063  0.00  0.00    +0.000 C 
ATOM     20  N   UNL     1      44.318   4.965  10.758  0.00  0.00    +0.000 NA
ATOM     21  C   UNL     1      45.784   4.940  10.861  0.00  0.00    +0.000 C 
ATOM     22  C   UNL     1      46.325   5.950  11.877  0.00  0.00    +0.000 C 
BRANCH  20  23
ATOM     23  C   UNL     1      43.879   3.846   9.880  0.00  0.00    +0.000 C 
BRANCH  23  24
ATOM     24  C   UNL     1      44.938   3.357   8.907  0.00  0.00    +0.000 A 
ATOM     25  C   UNL     1      45.340   2.023   8.926  0.00  0.00    +0.000 A 
ATOM     26  C   UNL     1      46.358   1.616   8.068  0.00  0.00    +0.000 A 
ATOM     27  C   UNL     1      46.937   2.544   7.211  0.00  0.00    +0.000 A 
ATOM     28  C   UNL     1      46.467   3.846   7.241  0.00  0.00    +0.000 A 
ATOM     29  N   UNL     1      45.488   4.274   8.068  0.00  0.00    +0.000 NA
ENDBRANCH  23  24
ENDBRANCH  20  23
ENDBRANCH  16  17
ENDBRANCH   3  16
TORSDOF 5
ENDMDL
MODEL 4
REMARK VINA RESULT:    -7.099      3.268      4.702
REMARK INTER + INTRA:          -9.805
REMARK INTER:                 -10.158
REMARK INTRA:                   0.354
REMARK UNBOUND:                -0.630
REMARK  Name = 
REMARK  5 active torsions:
REMARK  status: ('A' for Active; 'I' for Inactive)
REMARK    1  A    between atoms: C_2  and  C_18
REMARK    2  A    between atoms: N_3  and  C_4
REMARK    3  A    between atoms: C_4  and  C_5
REMARK    4  A    between atoms: N_8  and  C_9
REMARK    5  A    between atoms: C_9  and  C_10
REMARK                            x       y       z     vdW  Elec       q    Type
REMARK                         _______ _______ _______ _____ _____    ______ ____
ROOT
ATOM      1  O   UNL     1      48.346   5.994  14.137  0.00  0.00    +0.000 OA
ATOM      2  C   UNL     1      47.988   6.510  13.084  0.00  0.00    +0.000 C 
ATOM      3  N   UNL     1      46.947   6.047  12.325  0.00  0.00    +0.000 N 
ATOM      4  H   UNL     1      46.665   6.578  11.512  0.00  0.00    +0.000 HD
ENDROOT
BRANCH   2   5
ATOM      5  C   UNL     1      48.704   7.646  12.493  0.00  0.00    +0.000 A 
ATOM      6  C   UNL     1      50.068   7.587  12.261  0.00  0.00    +0.000 A 
ATOM      7  S   UNL     1      50.675   8.975  11.470  0.00  0.00    +0.000 S 
ATOM      8  C   UNL     1      49.145   9.722  11.478  0.00  0.00    +0.000 A 
ATOM      9  N   UNL     1      48.958  10.956  10.934  0.00  0.00    +0.000 NA
ATOM     10  C   UNL     1      47.752  11.410  11.045  0.00  0.00    +0.000 A 
ATOM     11  N   UNL     1      46.721  10.748  11.663  0.00  0.00    +0.000 N 
ATOM     12  C   UNL     1      46.860   9.494  12.209  0.00  0.00    +0.000 A 
ATOM     13  O   UNL     1      45.908   8.918  12.726  0.00  0.00    +0.000 OA
ATOM     14  C   UNL     1      48.190   8.932  12.086  0.00  0.00    +0.000 A 
ATOM     15  H   UNL     1      45.803  11.164  11.719  0.00  0.00    +0.000 HD
ENDBRANCH   2   5
BRANCH   3  16
ATOM     16  C   UNL     1      46.019   5.036  12.776  0.00  0.00    +0.000 C 
BRANCH  16  17
ATOM     17  C   UNL     1      44.559   5.342  12.397  0.00  0.00    +0.000 C 
ATOM     18  C   UNL     1      43.582   4.213  12.747  0.00  0.00    +0.000 C 
ATOM     19  C   UNL     1      43.815   2.954  11.909  0.00  0.00    +0.000 C 
ATOM     20  N   UNL     1      43.847   3.205  10.456  0.00  0.00    +0.000 NA
ATOM     21  C   UNL     1      44.712   4.332  10.077  0.00  0.00    +0.000 C 
ATOM     22  C   UNL     1      44.429   5.598  10.891  0.00  0.00    +0.000 C 
BRANCH  20  23
ATOM     23  C   UNL     1      44.305   1.985   9.737  0.00  0.00    +0.000 C 
BRANCH  23  24
ATOM     24  C   UNL     1      45.319   2.246   8.637  0.00  0.00    +0.000 A 
ATOM     25  C   UNL     1      45.220   3.394   7.854  0.00  0.00    +0.000 A 
ATOM     26  C   UNL     1      46.123   3.576   6.811  0.00  0.00    +0.000 A 
ATOM     27  C   UNL     1      47.105   2.619   6.587  0.00  0.00    +0.000 A 
ATOM     28  C   UNL     1      47.147   1.516   7.422  0.00  0.00    +0.000 A 
ATOM     29  N   UNL     1      46.280   1.306   8.436  0.00  0.00    +0.000 NA
ENDBRANCH  23  24
ENDBRANCH  20  23
ENDBRANCH  16  17
ENDBRANCH   3  16
TORSDOF 5
ENDMDL
MODEL 5
REMARK VINA RESULT:    -7.011      3.063      8.190
REMARK INTER + INTRA:          -9.690
REMARK INTER:                  -9.001
REMARK INTRA:                  -0.689
REMARK UNBOUND:                -0.630
REMARK  Name = 
REMARK  5 active torsions:
REMARK  status: ('A' for Active; 'I' for Inactive)
REMARK    1  A    between atoms: C_2  and  C_18
REMARK    2  A    between atoms: N_3  and  C_4
REMARK    3  A    between atoms: C_4  and  C_5
REMARK    4  A    between atoms: N_8  and  C_9
REMARK    5  A    between atoms: C_9  and  C_10
REMARK                            x       y       z     vdW  Elec       q    Type
REMARK                         _______ _______ _______ _____ _____    ______ ____
ROOT
ATOM      1  O   UNL     1      44.256   7.721  11.453  0.00  0.00    +0.000 OA
ATOM      2  C   UNL     1      45.032   6.790  11.646  0.00  0.00    +0.000 C 
ATOM      3  N   UNL     1      46.368   6.952  11.893  0.00  0.00    +0.000 N 
ATOM      4  H   UNL     1      46.923   6.138  12.122  0.00  0.00    +0.000 HD
ENDROOT
BRANCH   2   5
ATOM      5  C   UNL     1      44.603   5.390  11.553  0.00  0.00    +0.000 A 
ATOM      6  C   UNL     1      43.941   4.775  12.602  0.00  0.00    +0.000 A 
ATOM      7  S   UNL     1      43.440   3.183  12.239  0.00  0.00    +0.000 S 
ATOM      8  C   UNL     1      44.153   3.247  10.694  0.00  0.00    +0.000 A 
ATOM      9  N   UNL     1      44.083   2.190   9.839  0.00  0.00    +0.000 NA
ATOM     10  C   UNL     1      44.701   2.371   8.717  0.00  0.00    +0.000 A 
ATOM     11  N   UNL     1      45.394   3.506   8.380  0.00  0.00    +0.000 N 
ATOM     12  C   UNL     1      45.476   4.603   9.204  0.00  0.00    +0.000 A 
ATOM     13  O   UNL     1      46.077   5.615   8.856  0.00  0.00    +0.000 OA
ATOM     14  C   UNL     1      44.775   4.457  10.465  0.00  0.00    +0.000 A 
ATOM     15  H   UNL     1      45.858   3.579   7.486  0.00  0.00    +0.000 HD
ENDBRANCH   2   5
BRANCH   3  16
ATOM     16  C   UNL     1      46.979   8.233  12.167  0.00  0.00    +0.000 C 
BRANCH  16  17
ATOM     17  C   UNL     1      48.517   8.174  12.202  0.00  0.00    +0.000 C 
ATOM     18  C   UNL     1      49.074   6.783  12.526  0.00  0.00    +0.000 C 
ATOM     19  C   UNL     1      48.760   6.344  13.958  0.00  0.00    +0.000 C 
ATOM     20  N   UNL     1      49.152   7.331  14.981  0.00  0.00    +0.000 NA
ATOM     21  C   UNL     1      48.707   8.698  14.674  0.00  0.00    +0.000 C 
ATOM     22  C   UNL     1      49.076   9.139  13.254  0.00  0.00    +0.000 C 
BRANCH  20  23
ATOM     23  C   UNL     1      48.606   6.935  16.308  0.00  0.00    +0.000 C 
BRANCH  23  24
ATOM     24  C   UNL     1      48.817   5.473  16.664  0.00  0.00    +0.000 A 
ATOM     25  C   UNL     1      47.741   4.588  16.642  0.00  0.00    +0.000 A 
ATOM     26  C   UNL     1      47.949   3.269  17.036  0.00  0.00    +0.000 A 
ATOM     27  C   UNL     1      49.221   2.868  17.427  0.00  0.00    +0.000 A 
ATOM     28  C   UNL     1      50.240   3.805  17.402  0.00  0.00    +0.000 A 
ATOM     29  N   UNL     1      50.068   5.094  17.035  0.00  0.00    +0.000 NA
ENDBRANCH  23  24
ENDBRANCH  20  23
ENDBRANCH  16  17
ENDBRANCH   3  16
TORSDOF 5
ENDMDL
MODEL 6
REMARK VINA RESULT:    -6.859      3.264      9.717
REMARK INTER + INTRA:          -9.495
REMARK INTER:                  -8.748
REMARK INTRA:                  -0.747
REMARK UNBOUND:                -0.630
REMARK  Name = 
REMARK  5 active torsions:
REMARK  status: ('A' for Active; 'I' for Inactive)
REMARK    1  A    between atoms: C_2  and  C_18
REMARK    2  A    between atoms: N_3  and  C_4
REMARK    3  A    between atoms: C_4  and  C_5
REMARK    4  A    between atoms: N_8  and  C_9
REMARK    5  A    between atoms: C_9  and  C_10
REMARK                            x       y       z     vdW  Elec       q    Type
REMARK                         _______ _______ _______ _____ _____    ______ ____
ROOT
ATOM      1  O   UNL     1      48.699   6.312  13.465  0.00  0.00    +0.000 OA
ATOM      2  C   UNL     1      47.600   5.959  13.881  0.00  0.00    +0.000 C 
ATOM      3  N   UNL     1      47.388   5.452  15.134  0.00  0.00    +0.000 N 
ATOM      4  H   UNL     1      46.439   5.260  15.427  0.00  0.00    +0.000 HD
ENDROOT
BRANCH   2   5
ATOM      5  C   UNL     1      46.405   5.978  13.030  0.00  0.00    +0.000 A 
ATOM      6  C   UNL     1      45.858   7.174  12.596  0.00  0.00    +0.000 A 
ATOM      7  S   UNL     1      44.539   6.962  11.531  0.00  0.00    +0.000 S 
ATOM      8  C   UNL     1      44.619   5.267  11.673  0.00  0.00    +0.000 A 
ATOM      9  N   UNL     1      43.758   4.459  10.997  0.00  0.00    +0.000 NA
ATOM     10  C   UNL     1      43.917   3.197  11.231  0.00  0.00    +0.000 A 
ATOM     11  N   UNL     1      44.847   2.672  12.092  0.00  0.00    +0.000 N 
ATOM     12  C   UNL     1      45.748   3.448  12.781  0.00  0.00    +0.000 A 
ATOM     13  O   UNL     1      46.589   2.942  13.518  0.00  0.00    +0.000 OA
ATOM     14  C   UNL     1      45.627   4.870  12.530  0.00  0.00    +0.000 A 
ATOM     15  H   UNL     1      44.913   1.674  12.232  0.00  0.00    +0.000 HD
ENDBRANCH   2   5
BRANCH   3  16
ATOM     16  C   UNL     1      48.383   5.471  16.181  0.00  0.00    +0.000 C 
BRANCH  16  17
ATOM     17  C   UNL     1      48.040   4.543  17.360  0.00  0.00    +0.000 C 
ATOM     18  C   UNL     1      48.074   5.241  18.725  0.00  0.00    +0.000 C 
ATOM     19  C   UNL     1      49.486   5.670  19.129  0.00  0.00    +0.000 C 
ATOM     20  N   UNL     1      50.481   4.585  19.056  0.00  0.00    +0.000 NA
ATOM     21  C   UNL     1      50.434   3.833  17.794  0.00  0.00    +0.000 C 
ATOM     22  C   UNL     1      49.020   3.367  17.432  0.00  0.00    +0.000 C 
BRANCH  20  23
ATOM     23  C   UNL     1      51.852   5.135  19.237  0.00  0.00    +0.000 C 
BRANCH  23  24
ATOM     24  C   UNL     1      52.782   4.252  20.051  0.00  0.00    +0.000 A 
ATOM     25  C   UNL     1      52.834   4.384  21.437  0.00  0.00    +0.000 A 
ATOM     26  C   UNL     1      53.743   3.608  22.151  0.00  0.00    +0.000 A 
ATOM     27  C   UNL     1      54.562   2.718  21.468  0.00  0.00    +0.000 A 
ATOM     28  C   UNL     1      54.435   2.634  20.092  0.00  0.00    +0.000 A 
ATOM     29  N   UNL     1      53.571   3.379  19.370  0.00  0.00    +0.000 NA
ENDBRANCH  23  24
ENDBRANCH  20  23
ENDBRANCH  16  17
ENDBRANCH   3  16
TORSDOF 5
ENDMDL
MODEL 7
REMARK VINA RESULT:    -6.831      3.095      9.144
REMARK INTER + INTRA:          -9.458
REMARK INTER:                  -8.882
REMARK INTRA:                  -0.576
REMARK UNBOUND:                -0.630
REMARK  Name = 
REMARK  5 active torsions:
REMARK  status: ('A' for Active; 'I' for Inactive)
REMARK    1  A    between atoms: C_2  and  C_18
REMARK    2  A    between atoms: N_3  and  C_4
REMARK    3  A    between atoms: C_4  and  C_5
REMARK    4  A    between atoms: N_8  and  C_9
REMARK    5  A    between atoms: C_9  and  C_10
REMARK                            x       y       z     vdW  Elec       q    Type
REMARK                         _______ _______ _______ _____ _____    ______ ____
ROOT
ATOM      1  O   UNL     1      48.637   6.165  13.138  0.00  0.00    +0.000 OA
ATOM      2  C   UNL     1      47.529   5.933  13.609  0.00  0.00    +0.000 C 
ATOM      3  N   UNL     1      47.322   5.493  14.889  0.00  0.00    +0.000 N 
ATOM      4  H   UNL     1      46.373   5.403  15.225  0.00  0.00    +0.000 HD
ENDROOT
BRANCH   2   5
ATOM      5  C   UNL     1      46.306   6.036  12.804  0.00  0.00    +0.000 A 
ATOM      6  C   UNL     1      45.820   7.268  12.401  0.00  0.00    +0.000 A 
ATOM      7  S   UNL     1      44.451   7.149  11.385  0.00  0.00    +0.000 S 
ATOM      8  C   UNL     1      44.430   5.451  11.512  0.00  0.00    +0.000 A 
ATOM      9  N   UNL     1      43.495   4.705  10.862  0.00  0.00    +0.000 NA
ATOM     10  C   UNL     1      43.582   3.434  11.080  0.00  0.00    +0.000 A 
ATOM     11  N   UNL     1      44.509   2.843  11.901  0.00  0.00    +0.000 N 
ATOM     12  C   UNL     1      45.482   3.554  12.562  0.00  0.00    +0.000 A 
ATOM     13  O   UNL     1      46.316   2.989  13.262  0.00  0.00    +0.000 OA
ATOM     14  C   UNL     1      45.441   4.984  12.326  0.00  0.00    +0.000 A 
ATOM     15  H   UNL     1      44.517   1.841  12.031  0.00  0.00    +0.000 HD
ENDBRANCH   2   5
BRANCH   3  16
ATOM     16  C   UNL     1      48.358   5.454  15.895  0.00  0.00    +0.000 C 
BRANCH  16  17
ATOM     17  C   UNL     1      48.263   4.224  16.816  0.00  0.00    +0.000 C 
ATOM     18  C   UNL     1      47.142   4.319  17.858  0.00  0.00    +0.000 C 
ATOM     19  C   UNL     1      47.401   5.410  18.900  0.00  0.00    +0.000 C 
ATOM     20  N   UNL     1      48.725   5.315  19.542  0.00  0.00    +0.000 NA
ATOM     21  C   UNL     1      49.827   5.143  18.585  0.00  0.00    +0.000 C 
ATOM     22  C   UNL     1      49.573   4.013  17.582  0.00  0.00    +0.000 C 
BRANCH  20  23
ATOM     23  C   UNL     1      48.984   6.532  20.359  0.00  0.00    +0.000 C 
BRANCH  23  24
ATOM     24  C   UNL     1      48.503   7.828  19.730  0.00  0.00    +0.000 A 
ATOM     25  C   UNL     1      47.445   8.531  20.302  0.00  0.00    +0.000 A 
ATOM     26  C   UNL     1      46.982   9.680  19.668  0.00  0.00    +0.000 A 
ATOM     27  C   UNL     1      47.592  10.102  18.493  0.00  0.00    +0.000 A 
ATOM     28  C   UNL     1      48.650   9.357  18.000  0.00  0.00    +0.000 A 
ATOM     29  N   UNL     1      49.116   8.233  18.586  0.00  0.00    +0.000 NA
ENDBRANCH  23  24
ENDBRANCH  20  23
ENDBRANCH  16  17
ENDBRANCH   3  16
TORSDOF 5
ENDMDL
MODEL 8
REMARK VINA RESULT:    -6.824      3.776      9.084
REMARK INTER + INTRA:          -9.449
REMARK INTER:                  -8.760
REMARK INTRA:                  -0.689
REMARK UNBOUND:                -0.630
REMARK  Name = 
REMARK  5 active torsions:
REMARK  status: ('A' for Active; 'I' for Inactive)
REMARK    1  A    between atoms: C_2  and  C_18
REMARK    2  A    between atoms: N_3  and  C_4
REMARK    3  A    between atoms: C_4  and  C_5
REMARK    4  A    between atoms: N_8  and  C_9
REMARK    5  A    between atoms: C_9  and  C_10
REMARK                            x       y       z     vdW  Elec       q    Type
REMARK                         _______ _______ _______ _____ _____    ______ ____
ROOT
ATOM      1  O   UNL     1      46.992   3.144  13.619  0.00  0.00    +0.000 OA
ATOM      2  C   UNL     1      46.672   4.218  14.120  0.00  0.00    +0.000 C 
ATOM      3  N   UNL     1      46.777   4.495  15.456  0.00  0.00    +0.000 N 
ATOM      4  H   UNL     1      46.569   5.431  15.777  0.00  0.00    +0.000 HD
ENDROOT
BRANCH   2   5
ATOM      5  C   UNL     1      46.066   5.294  13.329  0.00  0.00    +0.000 A 
ATOM      6  C   UNL     1      46.775   6.446  13.031  0.00  0.00    +0.000 A 
ATOM      7  S   UNL     1      45.919   7.516  12.011  0.00  0.00    +0.000 S 
ATOM      8  C   UNL     1      44.552   6.502  11.994  0.00  0.00    +0.000 A 
ATOM      9  N   UNL     1      43.437   6.829  11.285  0.00  0.00    +0.000 NA
ATOM     10  C   UNL     1      42.467   5.982  11.396  0.00  0.00    +0.000 A 
ATOM     11  N   UNL     1      42.506   4.844  12.163  0.00  0.00    +0.000 N 
ATOM     12  C   UNL     1      43.615   4.465  12.879  0.00  0.00    +0.000 A 
ATOM     13  O   UNL     1      43.627   3.424  13.529  0.00  0.00    +0.000 OA
ATOM     14  C   UNL     1      44.740   5.372  12.765  0.00  0.00    +0.000 A 
ATOM     15  H   UNL     1      41.708   4.227  12.208  0.00  0.00    +0.000 HD
ENDBRANCH   2   5
BRANCH   3  16
ATOM     16  C   UNL     1      47.470   3.643  16.395  0.00  0.00    +0.000 C 
BRANCH  16  17
ATOM     17  C   UNL     1      47.573   4.253  17.805  0.00  0.00    +0.000 C 
ATOM     18  C   UNL     1      48.203   5.652  17.827  0.00  0.00    +0.000 C 
ATOM     19  C   UNL     1      49.683   5.634  17.437  0.00  0.00    +0.000 C 
ATOM     20  N   UNL     1      50.489   4.670  18.208  0.00  0.00    +0.000 NA
ATOM     21  C   UNL     1      49.885   3.332  18.282  0.00  0.00    +0.000 C 
ATOM     22  C   UNL     1      48.419   3.364  18.724  0.00  0.00    +0.000 C 
BRANCH  20  23
ATOM     23  C   UNL     1      51.848   4.551  17.615  0.00  0.00    +0.000 C 
BRANCH  23  24
ATOM     24  C   UNL     1      52.789   3.632  18.375  0.00  0.00    +0.000 A 
ATOM     25  C   UNL     1      53.194   3.961  19.667  0.00  0.00    +0.000 A 
ATOM     26  C   UNL     1      54.106   3.134  20.315  0.00  0.00    +0.000 A 
ATOM     27  C   UNL     1      54.580   2.001  19.665  0.00  0.00    +0.000 A 
ATOM     28  C   UNL     1      54.114   1.735  18.389  0.00  0.00    +0.000 A 
ATOM     29  N   UNL     1      53.236   2.522  17.730  0.00  0.00    +0.000 NA
ENDBRANCH  23  24
ENDBRANCH  20  23
ENDBRANCH  16  17
ENDBRANCH   3  16
TORSDOF 5
ENDMDL
MODEL 9
REMARK VINA RESULT:    -6.721      2.848      4.393
REMARK INTER + INTRA:          -9.316
REMARK INTER:                  -8.754
REMARK INTRA:                  -0.562
REMARK UNBOUND:                -0.630
REMARK  Name = 
REMARK  5 active torsions:
REMARK  status: ('A' for Active; 'I' for Inactive)
REMARK    1  A    between atoms: C_2  and  C_18
REMARK    2  A    between atoms: N_3  and  C_4
REMARK    3  A    between atoms: C_4  and  C_5
REMARK    4  A    between atoms: N_8  and  C_9
REMARK    5  A    between atoms: C_9  and  C_10
REMARK                            x       y       z     vdW  Elec       q    Type
REMARK                         _______ _______ _______ _____ _____    ______ ____
ROOT
ATOM      1  O   UNL     1      48.214   4.841  17.327  0.00  0.00    +0.000 OA
ATOM      2  C   UNL     1      49.314   5.233  16.951  0.00  0.00    +0.000 C 
ATOM      3  N   UNL     1      49.494   6.160  15.960  0.00  0.00    +0.000 N 
ATOM      4  H   UNL     1      50.430   6.488  15.766  0.00  0.00    +0.000 HD
ENDROOT
BRANCH   2   5
ATOM      5  C   UNL     1      50.561   4.676  17.488  0.00  0.00    +0.000 A 
ATOM      6  C   UNL     1      51.498   5.489  18.103  0.00  0.00    +0.000 A 
ATOM      7  S   UNL     1      52.820   4.621  18.748  0.00  0.00    +0.000 S 
ATOM      8  C   UNL     1      52.211   3.142  18.164  0.00  0.00    +0.000 A 
ATOM      9  N   UNL     1      52.868   1.970  18.382  0.00  0.00    +0.000 NA
ATOM     10  C   UNL     1      52.305   0.936  17.849  0.00  0.00    +0.000 A 
ATOM     11  N   UNL     1      51.152   0.969  17.105  0.00  0.00    +0.000 N 
ATOM     12  C   UNL     1      50.446   2.125  16.874  0.00  0.00    +0.000 A 
ATOM     13  O   UNL     1      49.401   2.114  16.231  0.00  0.00    +0.000 OA
ATOM     14  C   UNL     1      51.026   3.310  17.476  0.00  0.00    +0.000 A 
ATOM     15  H   UNL     1      50.769   0.121  16.712  0.00  0.00    +0.000 HD
ENDBRANCH   2   5
BRANCH   3  16
ATOM     16  C   UNL     1      48.418   6.939  15.392  0.00  0.00    +0.000 C 
BRANCH  16  17
ATOM     17  C   UNL     1      48.775   7.561  14.030  0.00  0.00    +0.000 C 
ATOM     18  C   UNL     1      47.817   8.676  13.592  0.00  0.00    +0.000 C 
ATOM     19  C   UNL     1      46.411   8.155  13.285  0.00  0.00    +0.000 C 
ATOM     20  N   UNL     1      46.390   7.026  12.337  0.00  0.00    +0.000 NA
ATOM     21  C   UNL     1      47.350   5.964  12.673  0.00  0.00    +0.000 C 
ATOM     22  C   UNL     1      48.763   6.498  12.925  0.00  0.00    +0.000 C 
BRANCH  20  23
ATOM     23  C   UNL     1      45.025   6.437  12.276  0.00  0.00    +0.000 C 
BRANCH  23  24
ATOM     24  C   UNL     1      44.891   5.256  11.330  0.00  0.00    +0.000 A 
ATOM     25  C   UNL     1      45.349   5.356  10.018  0.00  0.00    +0.000 A 
ATOM     26  C   UNL     1      45.155   4.282   9.155  0.00  0.00    +0.000 A 
ATOM     27  C   UNL     1      44.523   3.137   9.625  0.00  0.00    +0.000 A 
ATOM     28  C   UNL     1      44.114   3.110  10.947  0.00  0.00    +0.000 A 
ATOM     29  N   UNL     1      44.279   4.139  11.806  0.00  0.00    +0.000 NA
ENDBRANCH  23  24
ENDBRANCH  20  23
ENDBRANCH  16  17
ENDBRANCH   3  16
TORSDOF 5
ENDMDL
