MODEL 1
REMARK VINA RESULT:    -7.730      0.000      0.000
REMARK INTER + INTRA:         -12.246
REMARK INTER:                 -10.893
REMARK INTRA:                  -1.354
REMARK UNBOUND:                -1.354
REMARK  Name = 
REMARK  9 active torsions:
REMARK  status: ('A' for Active; 'I' for Inactive)
REMARK    1  A    between atoms: C_1  and  C_2
REMARK    2  A    between atoms: C_2  and  N_3
REMARK    3  A    between atoms: C_2  and  C_11
REMARK    4  A    between atoms: N_3  and  C_4
REMARK    5  A    between atoms: C_4  and  C_5
REMARK    6  A    between atoms: C_14  and  C_15
REMARK    7  A    between atoms: C_15  and  N_16
REMARK    8  A    between atoms: N_16  and  C_17
REMARK    9  A    between atoms: C_18  and  C_20
REMARK                            x       y       z     vdW  Elec       q    Type
REMARK                         _______ _______ _______ _____ _____    ______ ____
ROOT
ATOM      1  C   UNL     1      45.522   4.692  12.121  0.00  0.00    +0.000 A 
ATOM      2  C   UNL     1      45.901   5.815  11.364  0.00  0.00    +0.000 A 
ATOM      3  C   UNL     1      46.938   6.646  11.783  0.00  0.00    +0.000 A 
ATOM      4  C   UNL     1      47.676   6.342  12.932  0.00  0.00    +0.000 A 
ATOM      5  C   UNL     1      47.312   5.218  13.684  0.00  0.00    +0.000 A 
ATOM      6  C   UNL     1      46.235   4.414  13.294  0.00  0.00    +0.000 A 
ENDROOT
BRANCH   1   8
ATOM      7  C   UNL     1      43.232   4.779  11.020  0.00  0.00    +0.000 C 
ATOM      8  C   UNL     1      44.293   3.898  11.696  0.00  0.00    +0.000 C 
BRANCH   8   9
ATOM      9  N   UNL     1      44.638   2.780  10.795  0.00  0.00    +0.000 NA
ATOM     10  H   UNL     1      44.081   1.968  11.052  0.00  0.00    +0.000 HD
BRANCH   9  11
ATOM     11  C   UNL     1      44.370   3.103   9.390  0.00  0.00    +0.000 C 
BRANCH  11  12
ATOM     12  C   UNL     1      45.481   2.676   8.467  0.00  0.00    +0.000 A 
ATOM     13  C   UNL     1      46.168   3.624   7.701  0.00  0.00    +0.000 A 
ATOM     14  C   UNL     1      47.232   3.205   6.919  0.00  0.00    +0.000 A 
ATOM     15  N   UNL     1      47.648   1.923   6.842  0.00  0.00    +0.000 NA
ATOM     16  C   UNL     1      46.966   1.026   7.579  0.00  0.00    +0.000 A 
ATOM     17  C   UNL     1      45.891   1.344   8.398  0.00  0.00    +0.000 A 
ENDBRANCH  11  12
ENDBRANCH   9  11
ENDBRANCH   8   9
ENDBRANCH   1   8
BRANCH   4  18
ATOM     18  C   UNL     1      48.848   7.210  13.324  0.00  0.00    +0.000 C 
BRANCH  18  19
ATOM     19  N   UNL     1      48.725   7.791  14.658  0.00  0.00    +0.000 N 
ATOM     20  C   UNL     1      47.658   8.762  14.843  0.00  0.00    +0.000 C 
ATOM     21  C   UNL     1      49.571   7.301  15.663  0.00  0.00    +0.000 C 
ATOM     22  O   UNL     1      50.450   6.477  15.417  0.00  0.00    +0.000 OA
BRANCH  21  23
ATOM     23  C   UNL     1      49.358   7.723  17.056  0.00  0.00    +0.000 A 
ATOM     24  C   UNL     1      49.713   8.966  17.558  0.00  0.00    +0.000 A 
ATOM     25  S   UNL     1      49.267   9.199  19.188  0.00  0.00    +0.000 S 
ATOM     26  C   UNL     1      48.462   7.701  19.236  0.00  0.00    +0.000 A 
ATOM     27  N   UNL     1      47.765   7.318  20.338  0.00  0.00    +0.000 NA
ATOM     28  C   UNL     1      47.152   6.188  20.209  0.00  0.00    +0.000 A 
ATOM     29  N   UNL     1      47.203   5.393  19.092  0.00  0.00    +0.000 N 
ATOM     30  C   UNL     1      47.999   5.680  18.001  0.00  0.00    +0.000 A 
ATOM     31  O   UNL     1      48.193   4.843  17.127  0.00  0.00    +0.000 OA
ATOM     32  C   UNL     1      48.613   6.995  18.056  0.00  0.00    +0.000 A 
ATOM     33  H   UNL     1      46.748   4.493  19.079  0.00  0.00    +0.000 HD
ENDBRANCH  21  23
ENDBRANCH  18  19
ENDBRANCH   4  18
TORSDOF 7
ENDMDL
MODEL 2
REMARK VINA RESULT:    -7.096      1.439      2.569
REMARK INTER + INTRA:         -11.354
REMARK INTER:                 -10.061
REMARK INTRA:                  -1.293
REMARK UNBOUND:                -1.354
REMARK  Name = 
REMARK  9 active torsions:
REMARK  status: ('A' for Active; 'I' for Inactive)
REMARK    1  A    between atoms: C_1  and  C_2
REMARK    2  A    between atoms: C_2  and  N_3
REMARK    3  A    between atoms: C_2  and  C_11
REMARK    4  A    between atoms: N_3  and  C_4
REMARK    5  A    between atoms: C_4  and  C_5
REMARK    6  A    between atoms: C_14  and  C_15
REMARK    7  A    between atoms: C_15  and  N_16
REMARK    8  A    between atoms: N_16  and  C_17
REMARK    9  A    between atoms: C_18  and  C_20
REMARK                            x       y       z     vdW  Elec       q    Type
REMARK                         _______ _______ _______ _____ _____    ______ ____
ROOT
ATOM      1  C   UNL     1      45.377   4.725  12.112  0.00  0.00    +0.000 A 
ATOM      2  C   UNL     1      46.063   4.391  13.293  0.00  0.00    +0.000 A 
ATOM      3  C   UNL     1      47.209   5.083  13.678  0.00  0.00    +0.000 A 
ATOM      4  C   UNL     1      47.665   6.177  12.935  0.00  0.00    +0.000 A 
ATOM      5  C   UNL     1      46.980   6.524  11.763  0.00  0.00    +0.000 A 
ATOM      6  C   UNL     1      45.860   5.795  11.347  0.00  0.00    +0.000 A 
ENDROOT
BRANCH   1   8
ATOM      7  C   UNL     1      43.103   4.660  10.978  0.00  0.00    +0.000 C 
ATOM      8  C   UNL     1      44.214   3.850  11.662  0.00  0.00    +0.000 C 
BRANCH   8   9
ATOM      9  N   UNL     1      44.651   2.767  10.757  0.00  0.00    +0.000 NA
ATOM     10  H   UNL     1      44.108   1.931  10.961  0.00  0.00    +0.000 HD
BRANCH   9  11
ATOM     11  C   UNL     1      44.455   3.117   9.347  0.00  0.00    +0.000 C 
BRANCH  11  12
ATOM     12  C   UNL     1      45.563   2.614   8.458  0.00  0.00    +0.000 A 
ATOM     13  C   UNL     1      45.874   1.251   8.420  0.00  0.00    +0.000 A 
ATOM     14  C   UNL     1      46.849   0.814   7.538  0.00  0.00    +0.000 A 
ATOM     15  N   UNL     1      47.532   1.632   6.709  0.00  0.00    +0.000 NA
ATOM     16  C   UNL     1      47.224   2.941   6.770  0.00  0.00    +0.000 A 
ATOM     17  C   UNL     1      46.260   3.478   7.614  0.00  0.00    +0.000 A 
ENDBRANCH  11  12
ENDBRANCH   9  11
ENDBRANCH   8   9
ENDBRANCH   1   8
BRANCH   4  18
ATOM     18  C   UNL     1      48.862   6.965  13.413  0.00  0.00    +0.000 C 
BRANCH  18  19
ATOM     19  N   UNL     1      48.643   7.647  14.685  0.00  0.00    +0.000 N 
ATOM     20  C   UNL     1      47.721   8.773  14.664  0.00  0.00    +0.000 C 
ATOM     21  C   UNL     1      49.253   7.109  15.827  0.00  0.00    +0.000 C 
ATOM     22  O   UNL     1      50.021   6.152  15.752  0.00  0.00    +0.000 OA
BRANCH  21  23
ATOM     23  C   UNL     1      48.914   7.651  17.151  0.00  0.00    +0.000 A 
ATOM     24  C   UNL     1      48.081   7.020  18.063  0.00  0.00    +0.000 A 
ATOM     25  S   UNL     1      47.938   7.850  19.547  0.00  0.00    +0.000 S 
ATOM     26  C   UNL     1      49.092   9.006  19.072  0.00  0.00    +0.000 A 
ATOM     27  N   UNL     1      49.513   9.968  19.935  0.00  0.00    +0.000 NA
ATOM     28  C   UNL     1      50.437  10.735  19.460  0.00  0.00    +0.000 A 
ATOM     29  N   UNL     1      50.952  10.648  18.192  0.00  0.00    +0.000 N 
ATOM     30  C   UNL     1      50.466   9.772  17.242  0.00  0.00    +0.000 A 
ATOM     31  O   UNL     1      50.791   9.877  16.064  0.00  0.00    +0.000 OA
ATOM     32  C   UNL     1      49.508   8.814  17.766  0.00  0.00    +0.000 A 
ATOM     33  H   UNL     1      51.632  11.318  17.865  0.00  0.00    +0.000 HD
ENDBRANCH  21  23
ENDBRANCH  18  19
ENDBRANCH   4  18
TORSDOF 7
ENDMDL
MODEL 3
REMARK VINA RESULT:    -7.044      1.712      2.149
REMARK INTER + INTRA:         -11.281
REMARK INTER:                  -9.976
REMARK INTRA:                  -1.305
REMARK UNBOUND:                -1.354
REMARK  Name = 
REMARK  9 active torsions:
REMARK  status: ('A' for Active; 'I' for Inactive)
REMARK    1  A    between atoms: C_1  and  C_2
REMARK    2  A    between atoms: C_2  and  N_3
REMARK    3  A    between atoms: C_2  and  C_11
REMARK    4  A    between atoms: N_3  and  C_4
REMARK    5  A    between atoms: C_4  and  C_5
REMARK    6  A    between atoms: C_14  and  C_15
REMARK    7  A    between atoms: C_15  and  N_16
REMARK    8  A    between atoms: N_16  and  C_17
REMARK    9  A    between atoms: C_18  and  C_20
REMARK                            x       y       z     vdW  Elec       q    Type
REMARK                         _______ _______ _______ _____ _____    ______ ____
ROOT
ATOM      1  C   UNL     1      44.917   6.053  11.704  0.00  0.00    +0.000 A 
ATOM      2  C   UNL     1      46.230   5.609  11.937  0.00  0.00    +0.000 A 
ATOM      3  C   UNL     1      47.274   6.516  12.110  0.00  0.00    +0.000 A 
ATOM      4  C   UNL     1      47.028   7.892  12.128  0.00  0.00    +0.000 A 
ATOM      5  C   UNL     1      45.720   8.342  11.909  0.00  0.00    +0.000 A 
ATOM      6  C   UNL     1      44.680   7.434  11.680  0.00  0.00    +0.000 A 
ENDROOT
BRANCH   1   8
ATOM      7  C   UNL     1      42.427   5.540  11.706  0.00  0.00    +0.000 C 
ATOM      8  C   UNL     1      43.838   5.027  11.381  0.00  0.00    +0.000 C 
BRANCH   8   9
ATOM      9  N   UNL     1      43.884   4.597   9.969  0.00  0.00    +0.000 NA
ATOM     10  H   UNL     1      44.572   5.163   9.476  0.00  0.00    +0.000 HD
BRANCH   9  11
ATOM     11  C   UNL     1      44.261   3.186   9.835  0.00  0.00    +0.000 C 
BRANCH  11  12
ATOM     12  C   UNL     1      45.302   2.956   8.771  0.00  0.00    +0.000 A 
ATOM     13  C   UNL     1      45.828   4.034   8.051  0.00  0.00    +0.000 A 
ATOM     14  C   UNL     1      46.836   3.793   7.131  0.00  0.00    +0.000 A 
ATOM     15  N   UNL     1      47.343   2.569   6.877  0.00  0.00    +0.000 NA
ATOM     16  C   UNL     1      46.815   1.544   7.573  0.00  0.00    +0.000 A 
ATOM     17  C   UNL     1      45.808   1.680   8.520  0.00  0.00    +0.000 A 
ENDBRANCH  11  12
ENDBRANCH   9  11
ENDBRANCH   8   9
ENDBRANCH   1   8
BRANCH   4  18
ATOM     18  C   UNL     1      48.160   8.855  12.398  0.00  0.00    +0.000 C 
BRANCH  18  19
ATOM     19  N   UNL     1      49.056   8.420  13.465  0.00  0.00    +0.000 N 
ATOM     20  C   UNL     1      50.346   7.890  13.050  0.00  0.00    +0.000 C 
ATOM     21  C   UNL     1      48.646   8.636  14.790  0.00  0.00    +0.000 C 
ATOM     22  O   UNL     1      47.535   9.090  15.050  0.00  0.00    +0.000 OA
BRANCH  21  23
ATOM     23  C   UNL     1      49.591   8.383  15.888  0.00  0.00    +0.000 A 
ATOM     24  C   UNL     1      50.397   9.354  16.463  0.00  0.00    +0.000 A 
ATOM     25  S   UNL     1      51.330   8.782  17.772  0.00  0.00    +0.000 S 
ATOM     26  C   UNL     1      50.586   7.254  17.702  0.00  0.00    +0.000 A 
ATOM     27  N   UNL     1      50.866   6.298  18.627  0.00  0.00    +0.000 NA
ATOM     28  C   UNL     1      50.180   5.212  18.488  0.00  0.00    +0.000 A 
ATOM     29  N   UNL     1      49.267   4.985  17.489  0.00  0.00    +0.000 N 
ATOM     30  C   UNL     1      49.046   5.874  16.457  0.00  0.00    +0.000 A 
ATOM     31  O   UNL     1      48.398   5.544  15.470  0.00  0.00    +0.000 OA
ATOM     32  C   UNL     1      49.708   7.154  16.637  0.00  0.00    +0.000 A 
ATOM     33  H   UNL     1      48.809   4.090  17.404  0.00  0.00    +0.000 HD
ENDBRANCH  21  23
ENDBRANCH  18  19
ENDBRANCH   4  18
TORSDOF 7
ENDMDL
MODEL 4
REMARK VINA RESULT:    -6.910      3.335      5.045
REMARK INTER + INTRA:         -11.092
REMARK INTER:                  -9.895
REMARK INTRA:                  -1.197
REMARK UNBOUND:                -1.354
REMARK  Name = 
REMARK  9 active torsions:
REMARK  status: ('A' for Active; 'I' for Inactive)
REMARK    1  A    between atoms: C_1  and  C_2
REMARK    2  A    between atoms: C_2  and  N_3
REMARK    3  A    between atoms: C_2  and  C_11
REMARK    4  A    between atoms: N_3  and  C_4
REMARK    5  A    between atoms: C_4  and  C_5
REMARK    6  A    between atoms: C_14  and  C_15
REMARK    7  A    between atoms: C_15  and  N_16
REMARK    8  A    between atoms: N_16  and  C_17
REMARK    9  A    between atoms: C_18  and  C_20
REMARK                            x       y       z     vdW  Elec       q    Type
REMARK                         _______ _______ _______ _____ _____    ______ ____
ROOT
ATOM      1  C   UNL     1      45.559   5.868  11.531  0.00  0.00    +0.000 A 
ATOM      2  C   UNL     1      45.069   7.177  11.682  0.00  0.00    +0.000 A 
ATOM      3  C   UNL     1      45.683   8.077  12.552  0.00  0.00    +0.000 A 
ATOM      4  C   UNL     1      46.845   7.721  13.243  0.00  0.00    +0.000 A 
ATOM      5  C   UNL     1      47.346   6.421  13.088  0.00  0.00    +0.000 A 
ATOM      6  C   UNL     1      46.699   5.500  12.257  0.00  0.00    +0.000 A 
ENDROOT
BRANCH   1   8
ATOM      7  C   UNL     1      43.255   5.094  10.786  0.00  0.00    +0.000 C 
ATOM      8  C   UNL     1      44.772   4.881  10.678  0.00  0.00    +0.000 C 
BRANCH   8   9
ATOM      9  N   UNL     1      45.168   4.936   9.256  0.00  0.00    +0.000 NA
ATOM     10  H   UNL     1      46.184   4.962   9.200  0.00  0.00    +0.000 HD
BRANCH   9  11
ATOM     11  C   UNL     1      44.691   3.769   8.507  0.00  0.00    +0.000 C 
BRANCH  11  12
ATOM     12  C   UNL     1      45.812   2.934   7.944  0.00  0.00    +0.000 A 
ATOM     13  C   UNL     1      45.913   1.577   8.265  0.00  0.00    +0.000 A 
ATOM     14  C   UNL     1      46.914   0.823   7.673  0.00  0.00    +0.000 A 
ATOM     15  N   UNL     1      47.814   1.325   6.801  0.00  0.00    +0.000 NA
ATOM     16  C   UNL     1      47.706   2.636   6.515  0.00  0.00    +0.000 A 
ATOM     17  C   UNL     1      46.736   3.475   7.049  0.00  0.00    +0.000 A 
ENDBRANCH  11  12
ENDBRANCH   9  11
ENDBRANCH   8   9
ENDBRANCH   1   8
BRANCH   4  18
ATOM     18  C   UNL     1      47.541   8.736  14.118  0.00  0.00    +0.000 C 
BRANCH  18  19
ATOM     19  N   UNL     1      48.757   9.283  13.525  0.00  0.00    +0.000 N 
ATOM     20  C   UNL     1      48.583  10.393  12.600  0.00  0.00    +0.000 C 
ATOM     21  C   UNL     1      49.986   8.767  13.963  0.00  0.00    +0.000 C 
ATOM     22  O   UNL     1      50.041   7.825  14.750  0.00  0.00    +0.000 OA
BRANCH  21  23
ATOM     23  C   UNL     1      51.236   9.412  13.532  0.00  0.00    +0.000 A 
ATOM     24  C   UNL     1      51.948  10.322  14.297  0.00  0.00    +0.000 A 
ATOM     25  S   UNL     1      53.402  10.839  13.568  0.00  0.00    +0.000 S 
ATOM     26  C   UNL     1      53.195   9.760  12.270  0.00  0.00    +0.000 A 
ATOM     27  N   UNL     1      54.153   9.625  11.314  0.00  0.00    +0.000 NA
ATOM     28  C   UNL     1      53.890   8.724  10.427  0.00  0.00    +0.000 A 
ATOM     29  N   UNL     1      52.743   7.972  10.390  0.00  0.00    +0.000 N 
ATOM     30  C   UNL     1      51.690   8.164  11.262  0.00  0.00    +0.000 A 
ATOM     31  O   UNL     1      50.602   7.637  11.061  0.00  0.00    +0.000 OA
ATOM     32  C   UNL     1      51.990   9.085  12.345  0.00  0.00    +0.000 A 
ATOM     33  H   UNL     1      52.575   7.326   9.634  0.00  0.00    +0.000 HD
ENDBRANCH  21  23
ENDBRANCH  18  19
ENDBRANCH   4  18
TORSDOF 7
ENDMDL
MODEL 5
REMARK VINA RESULT:    -6.665      3.794      5.792
REMARK INTER + INTRA:         -10.746
REMARK INTER:                  -9.518
REMARK INTRA:                  -1.228
REMARK UNBOUND:                -1.354
REMARK  Name = 
REMARK  9 active torsions:
REMARK  status: ('A' for Active; 'I' for Inactive)
REMARK    1  A    between atoms: C_1  and  C_2
REMARK    2  A    between atoms: C_2  and  N_3
REMARK    3  A    between atoms: C_2  and  C_11
REMARK    4  A    between atoms: N_3  and  C_4
REMARK    5  A    between atoms: C_4  and  C_5
REMARK    6  A    between atoms: C_14  and  C_15
REMARK    7  A    between atoms: C_15  and  N_16
REMARK    8  A    between atoms: N_16  and  C_17
REMARK    9  A    between atoms: C_18  and  C_20
REMARK                            x       y       z     vdW  Elec       q    Type
REMARK                         _______ _______ _______ _____ _____    ______ ____
ROOT
ATOM      1  C   UNL     1      45.292   4.851  12.438  0.00  0.00    +0.000 A 
ATOM      2  C   UNL     1      46.358   4.465  13.269  0.00  0.00    +0.000 A 
ATOM      3  C   UNL     1      47.347   5.374  13.637  0.00  0.00    +0.000 A 
ATOM      4  C   UNL     1      47.265   6.715  13.246  0.00  0.00    +0.000 A 
ATOM      5  C   UNL     1      46.199   7.110  12.427  0.00  0.00    +0.000 A 
ATOM      6  C   UNL     1      45.235   6.185  12.012  0.00  0.00    +0.000 A 
ENDROOT
BRANCH   1   8
ATOM      7  C   UNL     1      43.118   4.394  11.201  0.00  0.00    +0.000 C 
ATOM      8  C   UNL     1      44.315   3.788  11.950  0.00  0.00    +0.000 C 
BRANCH   8   9
ATOM      9  N   UNL     1      44.970   2.786  11.085  0.00  0.00    +0.000 NA
ATOM     10  H   UNL     1      44.893   1.872  11.525  0.00  0.00    +0.000 HD
BRANCH   9  11
ATOM     11  C   UNL     1      44.351   2.717   9.758  0.00  0.00    +0.000 C 
BRANCH  11  12
ATOM     12  C   UNL     1      45.360   2.606   8.644  0.00  0.00    +0.000 A 
ATOM     13  C   UNL     1      45.717   3.734   7.898  0.00  0.00    +0.000 A 
ATOM     14  C   UNL     1      46.701   3.610   6.931  0.00  0.00    +0.000 A 
ATOM     15  N   UNL     1      47.340   2.454   6.654  0.00  0.00    +0.000 NA
ATOM     16  C   UNL     1      46.974   1.378   7.377  0.00  0.00    +0.000 A 
ATOM     17  C   UNL     1      46.004   1.398   8.371  0.00  0.00    +0.000 A 
ENDBRANCH  11  12
ENDBRANCH   9  11
ENDBRANCH   8   9
ENDBRANCH   1   8
BRANCH   4  18
ATOM     18  C   UNL     1      48.304   7.702  13.722  0.00  0.00    +0.000 C 
BRANCH  18  19
ATOM     19  N   UNL     1      48.942   8.447  12.641  0.00  0.00    +0.000 N 
ATOM     20  C   UNL     1      49.507   7.656  11.558  0.00  0.00    +0.000 C 
ATOM     21  C   UNL     1      48.873   9.847  12.684  0.00  0.00    +0.000 C 
ATOM     22  O   UNL     1      48.376  10.435  13.642  0.00  0.00    +0.000 OA
BRANCH  21  23
ATOM     23  C   UNL     1      49.339  10.629  11.528  0.00  0.00    +0.000 A 
ATOM     24  C   UNL     1      48.499  11.225  10.600  0.00  0.00    +0.000 A 
ATOM     25  S   UNL     1      49.324  12.135   9.416  0.00  0.00    +0.000 S 
ATOM     26  C   UNL     1      50.820  11.878  10.186  0.00  0.00    +0.000 A 
ATOM     27  N   UNL     1      51.951  12.477   9.730  0.00  0.00    +0.000 NA
ATOM     28  C   UNL     1      52.999  12.243  10.449  0.00  0.00    +0.000 A 
ATOM     29  N   UNL     1      53.021  11.439  11.561  0.00  0.00    +0.000 N 
ATOM     30  C   UNL     1      51.928  10.711  11.984  0.00  0.00    +0.000 A 
ATOM     31  O   UNL     1      52.045   9.837  12.836  0.00  0.00    +0.000 OA
ATOM     32  C   UNL     1      50.702  11.033  11.275  0.00  0.00    +0.000 A 
ATOM     33  H   UNL     1      53.888  11.252  12.043  0.00  0.00    +0.000 HD
ENDBRANCH  21  23
ENDBRANCH  18  19
ENDBRANCH   4  18
TORSDOF 7
ENDMDL
MODEL 6
REMARK VINA RESULT:    -6.633      1.684      2.792
REMARK INTER + INTRA:         -10.702
REMARK INTER:                  -9.720
REMARK INTRA:                  -0.982
REMARK UNBOUND:                -1.354
REMARK  Name = 
REMARK  9 active torsions:
REMARK  status: ('A' for Active; 'I' for Inactive)
REMARK    1  A    between atoms: C_1  and  C_2
REMARK    2  A    between atoms: C_2  and  N_3
REMARK    3  A    between atoms: C_2  and  C_11
REMARK    4  A    between atoms: N_3  and  C_4
REMARK    5  A    between atoms: C_4  and  C_5
REMARK    6  A    between atoms: C_14  and  C_15
REMARK    7  A    between atoms: C_15  and  N_16
REMARK    8  A    between atoms: N_16  and  C_17
REMARK    9  A    between atoms: C_18  and  C_20
REMARK                            x       y       z     vdW  Elec       q    Type
REMARK                         _______ _______ _______ _____ _____    ______ ____
ROOT
ATOM      1  C   UNL     1      45.796   4.675  12.393  0.00  0.00    +0.000 A 
ATOM      2  C   UNL     1      46.139   3.387  12.840  0.00  0.00    +0.000 A 
ATOM      3  C   UNL     1      46.909   3.207  13.987  0.00  0.00    +0.000 A 
ATOM      4  C   UNL     1      47.300   4.303  14.763  0.00  0.00    +0.000 A 
ATOM      5  C   UNL     1      46.952   5.589  14.330  0.00  0.00    +0.000 A 
ATOM      6  C   UNL     1      46.225   5.774  13.149  0.00  0.00    +0.000 A 
ENDROOT
BRANCH   1   8
ATOM      7  C   UNL     1      45.740   5.865  10.147  0.00  0.00    +0.000 C 
ATOM      8  C   UNL     1      45.074   4.825  11.060  0.00  0.00    +0.000 C 
BRANCH   8   9
ATOM      9  N   UNL     1      44.971   3.541  10.336  0.00  0.00    +0.000 NA
ATOM     10  H   UNL     1      44.130   3.057  10.645  0.00  0.00    +0.000 HD
BRANCH   9  11
ATOM     11  C   UNL     1      44.890   3.733   8.885  0.00  0.00    +0.000 C 
BRANCH  11  12
ATOM     12  C   UNL     1      45.875   2.882   8.125  0.00  0.00    +0.000 A 
ATOM     13  C   UNL     1      46.783   3.473   7.240  0.00  0.00    +0.000 A 
ATOM     14  C   UNL     1      47.722   2.669   6.613  0.00  0.00    +0.000 A 
ATOM     15  N   UNL     1      47.811   1.335   6.799  0.00  0.00    +0.000 NA
ATOM     16  C   UNL     1      46.921   0.786   7.647  0.00  0.00    +0.000 A 
ATOM     17  C   UNL     1      45.946   1.504   8.328  0.00  0.00    +0.000 A 
ENDBRANCH  11  12
ENDBRANCH   9  11
ENDBRANCH   8   9
ENDBRANCH   1   8
BRANCH   4  18
ATOM     18  C   UNL     1      48.065   4.082  16.046  0.00  0.00    +0.000 C 
BRANCH  18  19
ATOM     19  N   UNL     1      48.035   5.228  16.950  0.00  0.00    +0.000 N 
ATOM     20  C   UNL     1      46.985   5.228  17.958  0.00  0.00    +0.000 C 
ATOM     21  C   UNL     1      49.064   6.174  16.840  0.00  0.00    +0.000 C 
ATOM     22  O   UNL     1      49.914   6.095  15.955  0.00  0.00    +0.000 OA
BRANCH  21  23
ATOM     23  C   UNL     1      49.176   7.241  17.846  0.00  0.00    +0.000 A 
ATOM     24  C   UNL     1      49.739   7.074  19.102  0.00  0.00    +0.000 A 
ATOM     25  S   UNL     1      49.804   8.511  20.020  0.00  0.00    +0.000 S 
ATOM     26  C   UNL     1      49.209   9.430  18.718  0.00  0.00    +0.000 A 
ATOM     27  N   UNL     1      49.109  10.783  18.807  0.00  0.00    +0.000 NA
ATOM     28  C   UNL     1      48.704  11.355  17.722  0.00  0.00    +0.000 A 
ATOM     29  N   UNL     1      48.358  10.693  16.570  0.00  0.00    +0.000 N 
ATOM     30  C   UNL     1      48.320   9.317  16.476  0.00  0.00    +0.000 A 
ATOM     31  O   UNL     1      47.794   8.765  15.517  0.00  0.00    +0.000 OA
ATOM     32  C   UNL     1      48.878   8.638  17.633  0.00  0.00    +0.000 A 
ATOM     33  H   UNL     1      47.992  11.198  15.777  0.00  0.00    +0.000 HD
ENDBRANCH  21  23
ENDBRANCH  18  19
ENDBRANCH   4  18
TORSDOF 7
ENDMDL
MODEL 7
REMARK VINA RESULT:    -6.457      3.721      5.640
REMARK INTER + INTRA:         -10.453
REMARK INTER:                  -9.271
REMARK INTRA:                  -1.182
REMARK UNBOUND:                -1.354
REMARK  Name = 
REMARK  9 active torsions:
REMARK  status: ('A' for Active; 'I' for Inactive)
REMARK    1  A    between atoms: C_1  and  C_2
REMARK    2  A    between atoms: C_2  and  N_3
REMARK    3  A    between atoms: C_2  and  C_11
REMARK    4  A    between atoms: N_3  and  C_4
REMARK    5  A    between atoms: C_4  and  C_5
REMARK    6  A    between atoms: C_14  and  C_15
REMARK    7  A    between atoms: C_15  and  N_16
REMARK    8  A    between atoms: N_16  and  C_17
REMARK    9  A    between atoms: C_18  and  C_20
REMARK                            x       y       z     vdW  Elec       q    Type
REMARK                         _______ _______ _______ _____ _____    ______ ____
ROOT
ATOM      1  C   UNL     1      45.314   5.176  12.835  0.00  0.00    +0.000 A 
ATOM      2  C   UNL     1      44.958   6.505  12.543  0.00  0.00    +0.000 A 
ATOM      3  C   UNL     1      45.778   7.567  12.920  0.00  0.00    +0.000 A 
ATOM      4  C   UNL     1      47.012   7.332  13.535  0.00  0.00    +0.000 A 
ATOM      5  C   UNL     1      47.378   6.010  13.819  0.00  0.00    +0.000 A 
ATOM      6  C   UNL     1      46.531   4.946  13.490  0.00  0.00    +0.000 A 
ENDROOT
BRANCH   1   8
ATOM      7  C   UNL     1      42.950   4.605  12.094  0.00  0.00    +0.000 C 
ATOM      8  C   UNL     1      44.320   4.062  12.529  0.00  0.00    +0.000 C 
BRANCH   8   9
ATOM      9  N   UNL     1      44.824   3.136  11.494  0.00  0.00    +0.000 NA
ATOM     10  H   UNL     1      44.577   2.185  11.758  0.00  0.00    +0.000 HD
BRANCH   9  11
ATOM     11  C   UNL     1      44.248   3.418  10.176  0.00  0.00    +0.000 C 
BRANCH  11  12
ATOM     12  C   UNL     1      45.193   3.108   9.044  0.00  0.00    +0.000 A 
ATOM     13  C   UNL     1      45.701   4.137   8.245  0.00  0.00    +0.000 A 
ATOM     14  C   UNL     1      46.624   3.823   7.260  0.00  0.00    +0.000 A 
ATOM     15  N   UNL     1      47.062   2.571   7.015  0.00  0.00    +0.000 NA
ATOM     16  C   UNL     1      46.552   1.594   7.789  0.00  0.00    +0.000 A 
ATOM     17  C   UNL     1      45.628   1.804   8.804  0.00  0.00    +0.000 A 
ENDBRANCH  11  12
ENDBRANCH   9  11
ENDBRANCH   8   9
ENDBRANCH   1   8
BRANCH   4  18
ATOM     18  C   UNL     1      47.922   8.492  13.863  0.00  0.00    +0.000 C 
BRANCH  18  19
ATOM     19  N   UNL     1      49.283   8.326  13.362  0.00  0.00    +0.000 N 
ATOM     20  C   UNL     1      50.217   7.641  14.243  0.00  0.00    +0.000 C 
ATOM     21  C   UNL     1      49.551   8.747  12.051  0.00  0.00    +0.000 C 
ATOM     22  O   UNL     1      48.700   9.320  11.375  0.00  0.00    +0.000 OA
BRANCH  21  23
ATOM     23  C   UNL     1      50.854   8.433  11.444  0.00  0.00    +0.000 A 
ATOM     24  C   UNL     1      51.093   7.332  10.635  0.00  0.00    +0.000 A 
ATOM     25  S   UNL     1      52.679   7.274  10.009  0.00  0.00    +0.000 S 
ATOM     26  C   UNL     1      53.057   8.789  10.685  0.00  0.00    +0.000 A 
ATOM     27  N   UNL     1      54.255   9.383  10.443  0.00  0.00    +0.000 NA
ATOM     28  C   UNL     1      54.378  10.557  10.966  0.00  0.00    +0.000 A 
ATOM     29  N   UNL     1      53.426  11.175  11.736  0.00  0.00    +0.000 N 
ATOM     30  C   UNL     1      52.249  10.559  12.114  0.00  0.00    +0.000 A 
ATOM     31  O   UNL     1      51.532  11.048  12.980  0.00  0.00    +0.000 OA
ATOM     32  C   UNL     1      52.019   9.286  11.454  0.00  0.00    +0.000 A 
ATOM     33  H   UNL     1      53.610  12.069  12.164  0.00  0.00    +0.000 HD
ENDBRANCH  21  23
ENDBRANCH  18  19
ENDBRANCH   4  18
TORSDOF 7
ENDMDL
MODEL 8
REMARK VINA RESULT:    -6.313      3.422      7.790
REMARK INTER + INTRA:         -10.251
REMARK INTER:                  -8.397
REMARK INTRA:                  -1.854
REMARK UNBOUND:                -1.354
REMARK  Name = 
REMARK  9 active torsions:
REMARK  status: ('A' for Active; 'I' for Inactive)
REMARK    1  A    between atoms: C_1  and  C_2
REMARK    2  A    between atoms: C_2  and  N_3
REMARK    3  A    between atoms: C_2  and  C_11
REMARK    4  A    between atoms: N_3  and  C_4
REMARK    5  A    between atoms: C_4  and  C_5
REMARK    6  A    between atoms: C_14  and  C_15
REMARK    7  A    between atoms: C_15  and  N_16
REMARK    8  A    between atoms: N_16  and  C_17
REMARK    9  A    between atoms: C_18  and  C_20
REMARK                            x       y       z     vdW  Elec       q    Type
REMARK                         _______ _______ _______ _____ _____    ______ ____
ROOT
ATOM      1  C   UNL     1      49.727   7.872  17.193  0.00  0.00    +0.000 A 
ATOM      2  C   UNL     1      50.177   7.160  16.068  0.00  0.00    +0.000 A 
ATOM      3  C   UNL     1      49.784   7.526  14.782  0.00  0.00    +0.000 A 
ATOM      4  C   UNL     1      48.988   8.657  14.575  0.00  0.00    +0.000 A 
ATOM      5  C   UNL     1      48.546   9.379  15.691  0.00  0.00    +0.000 A 
ATOM      6  C   UNL     1      48.895   8.980  16.986  0.00  0.00    +0.000 A 
ENDROOT
BRANCH   1   8
ATOM      7  C   UNL     1      48.824   7.158  19.460  0.00  0.00    +0.000 C 
ATOM      8  C   UNL     1      50.071   7.349  18.583  0.00  0.00    +0.000 C 
BRANCH   8   9
ATOM      9  N   UNL     1      50.823   6.079  18.528  0.00  0.00    +0.000 NA
ATOM     10  H   UNL     1      51.697   6.193  19.037  0.00  0.00    +0.000 HD
BRANCH   9  11
ATOM     11  C   UNL     1      50.075   4.971  19.131  0.00  0.00    +0.000 C 
BRANCH  11  12
ATOM     12  C   UNL     1      49.762   3.872  18.149  0.00  0.00    +0.000 A 
ATOM     13  C   UNL     1      48.505   3.808  17.537  0.00  0.00    +0.000 A 
ATOM     14  C   UNL     1      48.277   2.827  16.585  0.00  0.00    +0.000 A 
ATOM     15  N   UNL     1      49.197   1.914  16.212  0.00  0.00    +0.000 NA
ATOM     16  C   UNL     1      50.396   1.987  16.822  0.00  0.00    +0.000 A 
ATOM     17  C   UNL     1      50.727   2.934  17.782  0.00  0.00    +0.000 A 
ENDBRANCH  11  12
ENDBRANCH   9  11
ENDBRANCH   8   9
ENDBRANCH   1   8
BRANCH   4  18
ATOM     18  C   UNL     1      48.640   9.085  13.169  0.00  0.00    +0.000 C 
BRANCH  18  19
ATOM     19  N   UNL     1      47.797   8.127  12.459  0.00  0.00    +0.000 N 
ATOM     20  C   UNL     1      48.468   7.257  11.506  0.00  0.00    +0.000 C 
ATOM     21  C   UNL     1      46.443   8.058  12.819  0.00  0.00    +0.000 C 
ATOM     22  O   UNL     1      45.957   8.836  13.637  0.00  0.00    +0.000 OA
BRANCH  21  23
ATOM     23  C   UNL     1      45.602   6.987  12.263  0.00  0.00    +0.000 A 
ATOM     24  C   UNL     1      44.701   7.162  11.224  0.00  0.00    +0.000 A 
ATOM     25  S   UNL     1      43.927   5.721  10.739  0.00  0.00    +0.000 S 
ATOM     26  C   UNL     1      44.871   4.793  11.808  0.00  0.00    +0.000 A 
ATOM     27  N   UNL     1      44.775   3.437  11.826  0.00  0.00    +0.000 NA
ATOM     28  C   UNL     1      45.597   2.861  12.640  0.00  0.00    +0.000 A 
ATOM     29  N   UNL     1      46.478   3.520  13.460  0.00  0.00    +0.000 N 
ATOM     30  C   UNL     1      46.519   4.896  13.568  0.00  0.00    +0.000 A 
ATOM     31  O   UNL     1      47.153   5.438  14.466  0.00  0.00    +0.000 OA
ATOM     32  C   UNL     1      45.696   5.583  12.588  0.00  0.00    +0.000 A 
ATOM     33  H   UNL     1      47.051   3.011  14.115  0.00  0.00    +0.000 HD
ENDBRANCH  21  23
ENDBRANCH  18  19
ENDBRANCH   4  18
TORSDOF 7
ENDMDL
MODEL 9
REMARK VINA RESULT:    -6.134      4.773      8.440
REMARK INTER + INTRA:          -9.998
REMARK INTER:                  -8.711
REMARK INTRA:                  -1.287
REMARK UNBOUND:                -1.354
REMARK  Name = 
REMARK  9 active torsions:
REMARK  status: ('A' for Active; 'I' for Inactive)
REMARK    1  A    between atoms: C_1  and  C_2
REMARK    2  A    between atoms: C_2  and  N_3
REMARK    3  A    between atoms: C_2  and  C_11
REMARK    4  A    between atoms: N_3  and  C_4
REMARK    5  A    between atoms: C_4  and  C_5
REMARK    6  A    between atoms: C_14  and  C_15
REMARK    7  A    between atoms: C_15  and  N_16
REMARK    8  A    between atoms: N_16  and  C_17
REMARK    9  A    between atoms: C_18  and  C_20
REMARK                            x       y       z     vdW  Elec       q    Type
REMARK                         _______ _______ _______ _____ _____    ______ ____
ROOT
ATOM      1  C   UNL     1      51.119   9.125  12.470  0.00  0.00    +0.000 A 
ATOM      2  C   UNL     1      50.331   8.776  11.359  0.00  0.00    +0.000 A 
ATOM      3  C   UNL     1      48.985   8.446  11.508  0.00  0.00    +0.000 A 
ATOM      4  C   UNL     1      48.366   8.524  12.759  0.00  0.00    +0.000 A 
ATOM      5  C   UNL     1      49.142   8.883  13.870  0.00  0.00    +0.000 A 
ATOM      6  C   UNL     1      50.506   9.161  13.730  0.00  0.00    +0.000 A 
ENDROOT
BRANCH   1   8
ATOM      7  C   UNL     1      53.434   8.085  12.615  0.00  0.00    +0.000 C 
ATOM      8  C   UNL     1      52.615   9.339  12.275  0.00  0.00    +0.000 C 
BRANCH   8   9
ATOM      9  N   UNL     1      52.940   9.773  10.901  0.00  0.00    +0.000 NA
ATOM     10  H   UNL     1      53.325  10.714  10.937  0.00  0.00    +0.000 HD
BRANCH   9  11
ATOM     11  C   UNL     1      53.925   8.891  10.266  0.00  0.00    +0.000 C 
BRANCH  11  12
ATOM     12  C   UNL     1      53.463   8.362   8.933  0.00  0.00    +0.000 A 
ATOM     13  C   UNL     1      52.910   7.080   8.834  0.00  0.00    +0.000 A 
ATOM     14  C   UNL     1      52.430   6.654   7.606  0.00  0.00    +0.000 A 
ATOM     15  N   UNL     1      52.470   7.402   6.484  0.00  0.00    +0.000 NA
ATOM     16  C   UNL     1      53.015   8.628   6.599  0.00  0.00    +0.000 A 
ATOM     17  C   UNL     1      53.519   9.150   7.783  0.00  0.00    +0.000 A 
ENDBRANCH  11  12
ENDBRANCH   9  11
ENDBRANCH   8   9
ENDBRANCH   1   8
BRANCH   4  18
ATOM     18  C   UNL     1      46.888   8.242  12.886  0.00  0.00    +0.000 C 
BRANCH  18  19
ATOM     19  N   UNL     1      46.531   6.856  12.597  0.00  0.00    +0.000 N 
ATOM     20  C   UNL     1      47.379   5.833  13.188  0.00  0.00    +0.000 C 
ATOM     21  C   UNL     1      45.357   6.625  11.864  0.00  0.00    +0.000 C 
ATOM     22  O   UNL     1      44.699   7.553  11.400  0.00  0.00    +0.000 OA
BRANCH  21  23
ATOM     23  C   UNL     1      44.862   5.249  11.708  0.00  0.00    +0.000 A 
ATOM     24  C   UNL     1      44.123   4.572  12.666  0.00  0.00    +0.000 A 
ATOM     25  S   UNL     1      43.619   3.019  12.170  0.00  0.00    +0.000 S 
ATOM     26  C   UNL     1      44.254   3.254  10.609  0.00  0.00    +0.000 A 
ATOM     27  N   UNL     1      44.075   2.323   9.635  0.00  0.00    +0.000 NA
ATOM     28  C   UNL     1      44.554   2.664   8.485  0.00  0.00    +0.000 A 
ATOM     29  N   UNL     1      45.224   3.834   8.231  0.00  0.00    +0.000 N 
ATOM     30  C   UNL     1      45.540   4.748   9.217  0.00  0.00    +0.000 A 
ATOM     31  O   UNL     1      46.328   5.661   8.998  0.00  0.00    +0.000 OA
ATOM     32  C   UNL     1      44.921   4.461  10.499  0.00  0.00    +0.000 A 
ATOM     33  H   UNL     1      45.624   4.011   7.323  0.00  0.00    +0.000 HD
ENDBRANCH  21  23
ENDBRANCH  18  19
ENDBRANCH   4  18
TORSDOF 7
ENDMDL
