MODEL 1
REMARK VINA RESULT:    -7.946      0.000      0.000
REMARK INTER + INTRA:         -11.422
REMARK INTER:                 -10.268
REMARK INTRA:                  -1.154
REMARK UNBOUND:                -1.154
REMARK  Name = 
REMARK  5 active torsions:
REMARK  status: ('A' for Active; 'I' for Inactive)
REMARK    1  A    between atoms: C_2  and  C_3
REMARK    2  A    between atoms: C_7  and  C_8
REMARK    3  A    between atoms: C_8  and  C_9
REMARK    4  A    between atoms: C_9  and  C_10
REMARK    5  A    between atoms: C_14  and  C_15
REMARK                            x       y       z     vdW  Elec       q    Type
REMARK                         _______ _______ _______ _____ _____    ______ ____
ROOT
ATOM      1  C   UNL     1      45.174   4.140  12.099  0.00  0.00    +0.000 A 
ATOM      2  C   UNL     1      45.900   3.326  12.974  0.00  0.00    +0.000 A 
ATOM      3  C   UNL     1      46.948   3.852  13.726  0.00  0.00    +0.000 A 
ATOM      4  C   UNL     1      47.311   5.191  13.585  0.00  0.00    +0.000 A 
ATOM      5  C   UNL     1      46.654   6.034  12.670  0.00  0.00    +0.000 A 
ATOM      6  C   UNL     1      45.568   5.485  11.957  0.00  0.00    +0.000 A 
ENDROOT
BRANCH   5   7
ATOM      7  C   UNL     1      47.150   7.405  12.397  0.00  0.00    +0.000 A 
ATOM      8  C   UNL     1      48.476   7.602  11.950  0.00  0.00    +0.000 A 
ATOM      9  C   UNL     1      48.959   8.868  11.595  0.00  0.00    +0.000 A 
ATOM     10  C   UNL     1      48.120   9.973  11.669  0.00  0.00    +0.000 A 
ATOM     11  C   UNL     1      46.817   9.806  12.118  0.00  0.00    +0.000 A 
ATOM     12  F   UNL     1      46.008  10.874  12.179  0.00  0.00    +0.000 F 
ATOM     13  C   UNL     1      46.339   8.547  12.487  0.00  0.00    +0.000 A 
ATOM     14  F   UNL     1      45.071   8.454  12.924  0.00  0.00    +0.000 F 
ENDBRANCH   5   7
BRANCH   1  15
ATOM     15  C   UNL     1      44.049   3.614  11.227  0.00  0.00    +0.000 C 
BRANCH  15  16
ATOM     16  C   UNL     1      44.004   4.187   9.806  0.00  0.00    +0.000 C 
BRANCH  16  21
ATOM     17  C   UNL     1      46.339   1.830   7.935  0.00  0.00    +0.000 A 
ATOM     18  C   UNL     1      47.017   2.766   7.172  0.00  0.00    +0.000 A 
ATOM     19  N   UNL     1      46.801   4.100   7.249  0.00  0.00    +0.000 NA
ATOM     20  C   UNL     1      45.849   4.518   8.115  0.00  0.00    +0.000 A 
ATOM     21  C   UNL     1      45.095   3.661   8.912  0.00  0.00    +0.000 A 
ATOM     22  C   UNL     1      45.366   2.290   8.826  0.00  0.00    +0.000 A 
BRANCH  17  24
ATOM     23  N   UNL     1      46.845  -0.696   7.676  0.00  0.00    +0.000 NA
ATOM     24  C   UNL     1      46.617   0.438   7.794  0.00  0.00    +0.000 C 
ENDBRANCH  17  24
ENDBRANCH  16  21
ENDBRANCH  15  16
ENDBRANCH   1  15
TORSDOF 5
ENDMDL
MODEL 2
REMARK VINA RESULT:    -7.698      4.072      7.267
REMARK INTER + INTRA:         -11.102
REMARK INTER:                 -10.080
REMARK INTRA:                  -1.023
REMARK UNBOUND:                -1.154
REMARK  Name = 
REMARK  5 active torsions:
REMARK  status: ('A' for Active; 'I' for Inactive)
REMARK    1  A    between atoms: C_2  and  C_3
REMARK    2  A    between atoms: C_7  and  C_8
REMARK    3  A    between atoms: C_8  and  C_9
REMARK    4  A    between atoms: C_9  and  C_10
REMARK    5  A    between atoms: C_14  and  C_15
REMARK                            x       y       z     vdW  Elec       q    Type
REMARK                         _______ _______ _______ _____ _____    ______ ____
ROOT
ATOM      1  C   UNL     1      45.256   6.288  11.722  0.00  0.00    +0.000 A 
ATOM      2  C   UNL     1      43.866   6.368  11.844  0.00  0.00    +0.000 A 
ATOM      3  C   UNL     1      43.040   5.521  11.109  0.00  0.00    +0.000 A 
ATOM      4  C   UNL     1      43.592   4.608  10.211  0.00  0.00    +0.000 A 
ATOM      5  C   UNL     1      44.981   4.535  10.004  0.00  0.00    +0.000 A 
ATOM      6  C   UNL     1      45.793   5.373  10.796  0.00  0.00    +0.000 A 
ENDROOT
BRANCH   5   7
ATOM      7  C   UNL     1      45.554   3.688   8.928  0.00  0.00    +0.000 A 
ATOM      8  C   UNL     1      46.280   4.281   7.871  0.00  0.00    +0.000 A 
ATOM      9  C   UNL     1      46.913   3.515   6.885  0.00  0.00    +0.000 A 
ATOM     10  C   UNL     1      46.842   2.128   6.935  0.00  0.00    +0.000 A 
ATOM     11  C   UNL     1      46.122   1.523   7.957  0.00  0.00    +0.000 A 
ATOM     12  F   UNL     1      46.065   0.184   8.007  0.00  0.00    +0.000 F 
ATOM     13  C   UNL     1      45.478   2.286   8.933  0.00  0.00    +0.000 A 
ATOM     14  F   UNL     1      44.789   1.641   9.889  0.00  0.00    +0.000 F 
ENDBRANCH   5   7
BRANCH   1  15
ATOM     15  C   UNL     1      46.203   7.211  12.467  0.00  0.00    +0.000 C 
BRANCH  15  16
ATOM     16  C   UNL     1      47.649   6.712  12.575  0.00  0.00    +0.000 C 
BRANCH  16  21
ATOM     17  C   UNL     1      47.810   4.974  15.960  0.00  0.00    +0.000 A 
ATOM     18  C   UNL     1      48.917   5.624  16.479  0.00  0.00    +0.000 A 
ATOM     19  N   UNL     1      49.587   6.607  15.831  0.00  0.00    +0.000 NA
ATOM     20  C   UNL     1      49.140   6.942  14.598  0.00  0.00    +0.000 A 
ATOM     21  C   UNL     1      48.052   6.338  13.976  0.00  0.00    +0.000 A 
ATOM     22  C   UNL     1      47.368   5.346  14.687  0.00  0.00    +0.000 A 
BRANCH  17  24
ATOM     23  N   UNL     1      46.626   3.105  17.303  0.00  0.00    +0.000 NA
ATOM     24  C   UNL     1      47.159   3.943  16.700  0.00  0.00    +0.000 C 
ENDBRANCH  17  24
ENDBRANCH  16  21
ENDBRANCH  15  16
ENDBRANCH   1  15
TORSDOF 5
ENDMDL
MODEL 3
REMARK VINA RESULT:    -7.501      1.123      1.671
REMARK INTER + INTRA:         -10.847
REMARK INTER:                  -9.863
REMARK INTRA:                  -0.984
REMARK UNBOUND:                -1.154
REMARK  Name = 
REMARK  5 active torsions:
REMARK  status: ('A' for Active; 'I' for Inactive)
REMARK    1  A    between atoms: C_2  and  C_3
REMARK    2  A    between atoms: C_7  and  C_8
REMARK    3  A    between atoms: C_8  and  C_9
REMARK    4  A    between atoms: C_9  and  C_10
REMARK    5  A    between atoms: C_14  and  C_15
REMARK                            x       y       z     vdW  Elec       q    Type
REMARK                         _______ _______ _______ _____ _____    ______ ____
ROOT
ATOM      1  C   UNL     1      45.001   4.801  11.452  0.00  0.00    +0.000 A 
ATOM      2  C   UNL     1      45.353   3.938  12.495  0.00  0.00    +0.000 A 
ATOM      3  C   UNL     1      46.256   4.344  13.475  0.00  0.00    +0.000 A 
ATOM      4  C   UNL     1      46.851   5.603  13.405  0.00  0.00    +0.000 A 
ATOM      5  C   UNL     1      46.580   6.481  12.341  0.00  0.00    +0.000 A 
ATOM      6  C   UNL     1      45.627   6.062  11.389  0.00  0.00    +0.000 A 
ENDROOT
BRANCH   5   7
ATOM      7  C   UNL     1      47.339   7.745  12.175  0.00  0.00    +0.000 A 
ATOM      8  C   UNL     1      48.663   7.715  11.682  0.00  0.00    +0.000 A 
ATOM      9  C   UNL     1      49.385   8.887  11.426  0.00  0.00    +0.000 A 
ATOM     10  C   UNL     1      48.795  10.125  11.649  0.00  0.00    +0.000 A 
ATOM     11  C   UNL     1      47.500  10.179  12.147  0.00  0.00    +0.000 A 
ATOM     12  F   UNL     1      46.931  11.376  12.352  0.00  0.00    +0.000 F 
ATOM     13  C   UNL     1      46.784   9.011  12.417  0.00  0.00    +0.000 A 
ATOM     14  F   UNL     1      45.539   9.131  12.907  0.00  0.00    +0.000 F 
ENDBRANCH   5   7
BRANCH   1  15
ATOM     15  C   UNL     1      44.054   4.401  10.337  0.00  0.00    +0.000 C 
BRANCH  15  16
ATOM     16  C   UNL     1      44.622   4.538   8.919  0.00  0.00    +0.000 C 
BRANCH  16  21
ATOM     17  C   UNL     1      46.845   2.162   6.941  0.00  0.00    +0.000 A 
ATOM     18  C   UNL     1      46.589   0.996   7.644  0.00  0.00    +0.000 A 
ATOM     19  N   UNL     1      45.722   0.918   8.681  0.00  0.00    +0.000 NA
ATOM     20  C   UNL     1      45.097   2.062   9.045  0.00  0.00    +0.000 A 
ATOM     21  C   UNL     1      45.299   3.289   8.421  0.00  0.00    +0.000 A 
ATOM     22  C   UNL     1      46.181   3.326   7.334  0.00  0.00    +0.000 A 
BRANCH  17  24
ATOM     23  N   UNL     1      48.534   2.174   4.979  0.00  0.00    +0.000 NA
ATOM     24  C   UNL     1      47.778   2.168   5.861  0.00  0.00    +0.000 C 
ENDBRANCH  17  24
ENDBRANCH  16  21
ENDBRANCH  15  16
ENDBRANCH   1  15
TORSDOF 5
ENDMDL
MODEL 4
REMARK VINA RESULT:    -7.340      2.542      4.114
REMARK INTER + INTRA:         -10.639
REMARK INTER:                 -10.148
REMARK INTRA:                  -0.492
REMARK UNBOUND:                -1.154
REMARK  Name = 
REMARK  5 active torsions:
REMARK  status: ('A' for Active; 'I' for Inactive)
REMARK    1  A    between atoms: C_2  and  C_3
REMARK    2  A    between atoms: C_7  and  C_8
REMARK    3  A    between atoms: C_8  and  C_9
REMARK    4  A    between atoms: C_9  and  C_10
REMARK    5  A    between atoms: C_14  and  C_15
REMARK                            x       y       z     vdW  Elec       q    Type
REMARK                         _______ _______ _______ _____ _____    ______ ____
ROOT
ATOM      1  C   UNL     1      45.470   4.573  12.350  0.00  0.00    +0.000 A 
ATOM      2  C   UNL     1      45.726   5.850  11.844  0.00  0.00    +0.000 A 
ATOM      3  C   UNL     1      46.672   6.675  12.449  0.00  0.00    +0.000 A 
ATOM      4  C   UNL     1      47.346   6.250  13.592  0.00  0.00    +0.000 A 
ATOM      5  C   UNL     1      47.076   5.000  14.178  0.00  0.00    +0.000 A 
ATOM      6  C   UNL     1      46.148   4.169  13.517  0.00  0.00    +0.000 A 
ENDROOT
BRANCH   5   7
ATOM      7  C   UNL     1      47.665   4.622  15.486  0.00  0.00    +0.000 A 
ATOM      8  C   UNL     1      47.613   3.279  15.924  0.00  0.00    +0.000 A 
ATOM      9  C   UNL     1      48.233   2.861  17.107  0.00  0.00    +0.000 A 
ATOM     10  C   UNL     1      48.932   3.777  17.883  0.00  0.00    +0.000 A 
ATOM     11  C   UNL     1      48.985   5.105  17.480  0.00  0.00    +0.000 A 
ATOM     12  F   UNL     1      49.669   5.985  18.227  0.00  0.00    +0.000 F 
ATOM     13  C   UNL     1      48.355   5.527  16.308  0.00  0.00    +0.000 A 
ATOM     14  F   UNL     1      48.434   6.827  15.979  0.00  0.00    +0.000 F 
ENDBRANCH   5   7
BRANCH   1  15
ATOM     15  C   UNL     1      44.425   3.646  11.757  0.00  0.00    +0.000 C 
BRANCH  15  16
ATOM     16  C   UNL     1      43.987   3.987  10.327  0.00  0.00    +0.000 C 
BRANCH  16  21
ATOM     17  C   UNL     1      46.206   1.858   8.080  0.00  0.00    +0.000 A 
ATOM     18  C   UNL     1      46.711   2.861   7.270  0.00  0.00    +0.000 A 
ATOM     19  N   UNL     1      46.417   4.174   7.424  0.00  0.00    +0.000 NA
ATOM     20  C   UNL     1      45.563   4.498   8.423  0.00  0.00    +0.000 A 
ATOM     21  C   UNL     1      44.982   3.567   9.279  0.00  0.00    +0.000 A 
ATOM     22  C   UNL     1      45.331   2.222   9.107  0.00  0.00    +0.000 A 
BRANCH  17  24
ATOM     23  N   UNL     1      46.845  -0.616   7.669  0.00  0.00    +0.000 NA
ATOM     24  C   UNL     1      46.556   0.495   7.852  0.00  0.00    +0.000 C 
ENDBRANCH  17  24
ENDBRANCH  16  21
ENDBRANCH  15  16
ENDBRANCH   1  15
TORSDOF 5
ENDMDL
MODEL 5
REMARK VINA RESULT:    -6.944      4.005      7.356
REMARK INTER + INTRA:         -10.128
REMARK INTER:                  -9.016
REMARK INTRA:                  -1.112
REMARK UNBOUND:                -1.154
REMARK  Name = 
REMARK  5 active torsions:
REMARK  status: ('A' for Active; 'I' for Inactive)
REMARK    1  A    between atoms: C_2  and  C_3
REMARK    2  A    between atoms: C_7  and  C_8
REMARK    3  A    between atoms: C_8  and  C_9
REMARK    4  A    between atoms: C_9  and  C_10
REMARK    5  A    between atoms: C_14  and  C_15
REMARK                            x       y       z     vdW  Elec       q    Type
REMARK                         _______ _______ _______ _____ _____    ______ ____
ROOT
ATOM      1  C   UNL     1      47.557   7.599  12.763  0.00  0.00    +0.000 A 
ATOM      2  C   UNL     1      46.828   8.791  12.737  0.00  0.00    +0.000 A 
ATOM      3  C   UNL     1      45.542   8.824  12.203  0.00  0.00    +0.000 A 
ATOM      4  C   UNL     1      44.982   7.673  11.650  0.00  0.00    +0.000 A 
ATOM      5  C   UNL     1      45.700   6.465  11.593  0.00  0.00    +0.000 A 
ATOM      6  C   UNL     1      46.981   6.451  12.183  0.00  0.00    +0.000 A 
ENDROOT
BRANCH   5   7
ATOM      7  C   UNL     1      45.172   5.292  10.854  0.00  0.00    +0.000 A 
ATOM      8  C   UNL     1      45.537   5.081   9.506  0.00  0.00    +0.000 A 
ATOM      9  C   UNL     1      45.135   3.942   8.798  0.00  0.00    +0.000 A 
ATOM     10  C   UNL     1      44.361   2.975   9.426  0.00  0.00    +0.000 A 
ATOM     11  C   UNL     1      43.977   3.167  10.747  0.00  0.00    +0.000 A 
ATOM     12  F   UNL     1      43.237   2.226  11.353  0.00  0.00    +0.000 F 
ATOM     13  C   UNL     1      44.365   4.309  11.450  0.00  0.00    +0.000 A 
ATOM     14  F   UNL     1      43.952   4.441  12.722  0.00  0.00    +0.000 F 
ENDBRANCH   5   7
BRANCH   1  15
ATOM     15  C   UNL     1      48.975   7.512  13.296  0.00  0.00    +0.000 C 
BRANCH  15  16
ATOM     16  C   UNL     1      49.146   7.925  14.763  0.00  0.00    +0.000 C 
BRANCH  16  21
ATOM     17  C   UNL     1      48.512   4.783  16.819  0.00  0.00    +0.000 A 
ATOM     18  C   UNL     1      49.793   4.588  17.309  0.00  0.00    +0.000 A 
ATOM     19  N   UNL     1      50.831   5.420  17.054  0.00  0.00    +0.000 NA
ATOM     20  C   UNL     1      50.582   6.484  16.257  0.00  0.00    +0.000 A 
ATOM     21  C   UNL     1      49.339   6.760  15.696  0.00  0.00    +0.000 A 
ATOM     22  C   UNL     1      48.283   5.894  16.004  0.00  0.00    +0.000 A 
BRANCH  17  24
ATOM     23  N   UNL     1      46.620   3.105  17.372  0.00  0.00    +0.000 NA
ATOM     24  C   UNL     1      47.469   3.860  17.126  0.00  0.00    +0.000 C 
ENDBRANCH  17  24
ENDBRANCH  16  21
ENDBRANCH  15  16
ENDBRANCH   1  15
TORSDOF 5
ENDMDL
MODEL 6
REMARK VINA RESULT:    -6.869      2.953      4.923
REMARK INTER + INTRA:         -10.031
REMARK INTER:                  -9.018
REMARK INTRA:                  -1.013
REMARK UNBOUND:                -1.154
REMARK  Name = 
REMARK  5 active torsions:
REMARK  status: ('A' for Active; 'I' for Inactive)
REMARK    1  A    between atoms: C_2  and  C_3
REMARK    2  A    between atoms: C_7  and  C_8
REMARK    3  A    between atoms: C_8  and  C_9
REMARK    4  A    between atoms: C_9  and  C_10
REMARK    5  A    between atoms: C_14  and  C_15
REMARK                            x       y       z     vdW  Elec       q    Type
REMARK                         _______ _______ _______ _____ _____    ______ ____
ROOT
ATOM      1  C   UNL     1      46.796   7.170  12.338  0.00  0.00    +0.000 A 
ATOM      2  C   UNL     1      47.924   7.861  11.884  0.00  0.00    +0.000 A 
ATOM      3  C   UNL     1      49.132   7.774  12.572  0.00  0.00    +0.000 A 
ATOM      4  C   UNL     1      49.220   7.029  13.746  0.00  0.00    +0.000 A 
ATOM      5  C   UNL     1      48.098   6.370  14.280  0.00  0.00    +0.000 A 
ATOM      6  C   UNL     1      46.901   6.437  13.537  0.00  0.00    +0.000 A 
ENDROOT
BRANCH   5   7
ATOM      7  C   UNL     1      48.150   5.723  15.614  0.00  0.00    +0.000 A 
ATOM      8  C   UNL     1      48.745   6.395  16.704  0.00  0.00    +0.000 A 
ATOM      9  C   UNL     1      48.737   5.861  17.999  0.00  0.00    +0.000 A 
ATOM     10  C   UNL     1      48.122   4.638  18.238  0.00  0.00    +0.000 A 
ATOM     11  C   UNL     1      47.542   3.953  17.179  0.00  0.00    +0.000 A 
ATOM     12  F   UNL     1      46.941   2.777  17.417  0.00  0.00    +0.000 F 
ATOM     13  C   UNL     1      47.562   4.477  15.885  0.00  0.00    +0.000 A 
ATOM     14  F   UNL     1      46.994   3.759  14.902  0.00  0.00    +0.000 F 
ENDBRANCH   5   7
BRANCH   1  15
ATOM     15  C   UNL     1      45.445   7.258  11.653  0.00  0.00    +0.000 C 
BRANCH  15  16
ATOM     16  C   UNL     1      44.442   6.167  12.048  0.00  0.00    +0.000 C 
BRANCH  16  21
ATOM     17  C   UNL     1      45.140   3.909   9.061  0.00  0.00    +0.000 A 
ATOM     18  C   UNL     1      44.414   2.799   9.461  0.00  0.00    +0.000 A 
ATOM     19  N   UNL     1      43.688   2.745  10.603  0.00  0.00    +0.000 NA
ATOM     20  C   UNL     1      43.703   3.845  11.391  0.00  0.00    +0.000 A 
ATOM     21  C   UNL     1      44.415   5.003  11.094  0.00  0.00    +0.000 A 
ATOM     22  C   UNL     1      45.132   5.033   9.892  0.00  0.00    +0.000 A 
BRANCH  17  24
ATOM     23  N   UNL     1      46.496   3.870   6.856  0.00  0.00    +0.000 NA
ATOM     24  C   UNL     1      45.888   3.890   7.847  0.00  0.00    +0.000 C 
ENDBRANCH  17  24
ENDBRANCH  16  21
ENDBRANCH  15  16
ENDBRANCH   1  15
TORSDOF 5
ENDMDL
MODEL 7
REMARK VINA RESULT:    -6.721      2.321      2.764
REMARK INTER + INTRA:          -9.839
REMARK INTER:                  -9.224
REMARK INTRA:                  -0.615
REMARK UNBOUND:                -1.154
REMARK  Name = 
REMARK  5 active torsions:
REMARK  status: ('A' for Active; 'I' for Inactive)
REMARK    1  A    between atoms: C_2  and  C_3
REMARK    2  A    between atoms: C_7  and  C_8
REMARK    3  A    between atoms: C_8  and  C_9
REMARK    4  A    between atoms: C_9  and  C_10
REMARK    5  A    between atoms: C_14  and  C_15
REMARK                            x       y       z     vdW  Elec       q    Type
REMARK                         _______ _______ _______ _____ _____    ______ ____
ROOT
ATOM      1  C   UNL     1      45.654   5.465  11.967  0.00  0.00    +0.000 A 
ATOM      2  C   UNL     1      45.591   4.533  13.007  0.00  0.00    +0.000 A 
ATOM      3  C   UNL     1      46.548   4.536  14.019  0.00  0.00    +0.000 A 
ATOM      4  C   UNL     1      47.604   5.445  13.986  0.00  0.00    +0.000 A 
ATOM      5  C   UNL     1      47.747   6.360  12.927  0.00  0.00    +0.000 A 
ATOM      6  C   UNL     1      46.739   6.364  11.941  0.00  0.00    +0.000 A 
ENDROOT
BRANCH   5   7
ATOM      7  C   UNL     1      48.959   7.207  12.803  0.00  0.00    +0.000 A 
ATOM      8  C   UNL     1      49.277   7.811  11.566  0.00  0.00    +0.000 A 
ATOM      9  C   UNL     1      50.359   8.689  11.425  0.00  0.00    +0.000 A 
ATOM     10  C   UNL     1      51.149   8.993  12.527  0.00  0.00    +0.000 A 
ATOM     11  C   UNL     1      50.865   8.400  13.750  0.00  0.00    +0.000 A 
ATOM     12  F   UNL     1      51.625   8.705  14.813  0.00  0.00    +0.000 F 
ATOM     13  C   UNL     1      49.795   7.514  13.888  0.00  0.00    +0.000 A 
ATOM     14  F   UNL     1      49.579   6.966  15.096  0.00  0.00    +0.000 F 
ENDBRANCH   5   7
BRANCH   1  15
ATOM     15  C   UNL     1      44.664   5.485  10.817  0.00  0.00    +0.000 C 
BRANCH  15  16
ATOM     16  C   UNL     1      45.287   5.407   9.419  0.00  0.00    +0.000 C 
BRANCH  16  21
ATOM     17  C   UNL     1      46.583   2.367   7.527  0.00  0.00    +0.000 A 
ATOM     18  C   UNL     1      45.813   1.392   8.139  0.00  0.00    +0.000 A 
ATOM     19  N   UNL     1      44.881   1.653   9.087  0.00  0.00    +0.000 NA
ATOM     20  C   UNL     1      44.726   2.947   9.453  0.00  0.00    +0.000 A 
ATOM     21  C   UNL     1      45.463   3.999   8.918  0.00  0.00    +0.000 A 
ATOM     22  C   UNL     1      46.397   3.694   7.921  0.00  0.00    +0.000 A 
BRANCH  17  24
ATOM     23  N   UNL     1      48.339   1.723   5.737  0.00  0.00    +0.000 NA
ATOM     24  C   UNL     1      47.550   2.014   6.540  0.00  0.00    +0.000 C 
ENDBRANCH  17  24
ENDBRANCH  16  21
ENDBRANCH  15  16
ENDBRANCH   1  15
TORSDOF 5
ENDMDL
MODEL 8
REMARK VINA RESULT:    -6.414      3.379      7.278
REMARK INTER + INTRA:          -9.442
REMARK INTER:                  -8.811
REMARK INTRA:                  -0.631
REMARK UNBOUND:                -1.154
REMARK  Name = 
REMARK  5 active torsions:
REMARK  status: ('A' for Active; 'I' for Inactive)
REMARK    1  A    between atoms: C_2  and  C_3
REMARK    2  A    between atoms: C_7  and  C_8
REMARK    3  A    between atoms: C_8  and  C_9
REMARK    4  A    between atoms: C_9  and  C_10
REMARK    5  A    between atoms: C_14  and  C_15
REMARK                            x       y       z     vdW  Elec       q    Type
REMARK                         _______ _______ _______ _____ _____    ______ ____
ROOT
ATOM      1  C   UNL     1      44.262   4.919  11.338  0.00  0.00    +0.000 A 
ATOM      2  C   UNL     1      43.326   4.040  11.891  0.00  0.00    +0.000 A 
ATOM      3  C   UNL     1      43.255   2.718  11.459  0.00  0.00    +0.000 A 
ATOM      4  C   UNL     1      44.092   2.266  10.440  0.00  0.00    +0.000 A 
ATOM      5  C   UNL     1      45.004   3.128   9.806  0.00  0.00    +0.000 A 
ATOM      6  C   UNL     1      45.086   4.448  10.297  0.00  0.00    +0.000 A 
ENDROOT
BRANCH   5   7
ATOM      7  C   UNL     1      45.769   2.694   8.611  0.00  0.00    +0.000 A 
ATOM      8  C   UNL     1      46.143   1.340   8.463  0.00  0.00    +0.000 A 
ATOM      9  C   UNL     1      46.786   0.869   7.312  0.00  0.00    +0.000 A 
ATOM     10  C   UNL     1      47.065   1.745   6.270  0.00  0.00    +0.000 A 
ATOM     11  C   UNL     1      46.720   3.083   6.398  0.00  0.00    +0.000 A 
ATOM     12  F   UNL     1      46.983   3.923   5.385  0.00  0.00    +0.000 F 
ATOM     13  C   UNL     1      46.092   3.557   7.552  0.00  0.00    +0.000 A 
ATOM     14  F   UNL     1      45.793   4.865   7.619  0.00  0.00    +0.000 F 
ENDBRANCH   5   7
BRANCH   1  15
ATOM     15  C   UNL     1      44.359   6.379  11.741  0.00  0.00    +0.000 C 
BRANCH  15  16
ATOM     16  C   UNL     1      45.367   6.681  12.857  0.00  0.00    +0.000 C 
BRANCH  16  21
ATOM     17  C   UNL     1      47.398   9.782  11.988  0.00  0.00    +0.000 A 
ATOM     18  C   UNL     1      48.618   9.174  11.741  0.00  0.00    +0.000 A 
ATOM     19  N   UNL     1      48.817   7.836  11.797  0.00  0.00    +0.000 NA
ATOM     20  C   UNL     1      47.753   7.072  12.134  0.00  0.00    +0.000 A 
ATOM     21  C   UNL     1      46.491   7.582  12.423  0.00  0.00    +0.000 A 
ATOM     22  C   UNL     1      46.316   8.968  12.328  0.00  0.00    +0.000 A 
BRANCH  17  24
ATOM     23  N   UNL     1      47.156  12.357  11.860  0.00  0.00    +0.000 NA
ATOM     24  C   UNL     1      47.266  11.201  11.916  0.00  0.00    +0.000 C 
ENDBRANCH  17  24
ENDBRANCH  16  21
ENDBRANCH  15  16
ENDBRANCH   1  15
TORSDOF 5
ENDMDL
MODEL 9
REMARK VINA RESULT:    -6.323      4.156      7.238
REMARK INTER + INTRA:          -9.324
REMARK INTER:                  -8.493
REMARK INTRA:                  -0.832
REMARK UNBOUND:                -1.154
REMARK  Name = 
REMARK  5 active torsions:
REMARK  status: ('A' for Active; 'I' for Inactive)
REMARK    1  A    between atoms: C_2  and  C_3
REMARK    2  A    between atoms: C_7  and  C_8
REMARK    3  A    between atoms: C_8  and  C_9
REMARK    4  A    between atoms: C_9  and  C_10
REMARK    5  A    between atoms: C_14  and  C_15
REMARK                            x       y       z     vdW  Elec       q    Type
REMARK                         _______ _______ _______ _____ _____    ______ ____
ROOT
ATOM      1  C   UNL     1      48.553   7.207  14.010  0.00  0.00    +0.000 A 
ATOM      2  C   UNL     1      48.898   8.255  13.151  0.00  0.00    +0.000 A 
ATOM      3  C   UNL     1      48.092   8.571  12.060  0.00  0.00    +0.000 A 
ATOM      4  C   UNL     1      46.951   7.818  11.789  0.00  0.00    +0.000 A 
ATOM      5  C   UNL     1      46.597   6.714  12.584  0.00  0.00    +0.000 A 
ATOM      6  C   UNL     1      47.406   6.447  13.708  0.00  0.00    +0.000 A 
ENDROOT
BRANCH   5   7
ATOM      7  C   UNL     1      45.484   5.813  12.195  0.00  0.00    +0.000 A 
ATOM      8  C   UNL     1      44.532   5.409  13.157  0.00  0.00    +0.000 A 
ATOM      9  C   UNL     1      43.417   4.633  12.817  0.00  0.00    +0.000 A 
ATOM     10  C   UNL     1      43.220   4.247  11.497  0.00  0.00    +0.000 A 
ATOM     11  C   UNL     1      44.151   4.620  10.536  0.00  0.00    +0.000 A 
ATOM     12  F   UNL     1      43.952   4.253   9.261  0.00  0.00    +0.000 F 
ATOM     13  C   UNL     1      45.271   5.381  10.876  0.00  0.00    +0.000 A 
ATOM     14  F   UNL     1      46.139   5.701   9.902  0.00  0.00    +0.000 F 
ENDBRANCH   5   7
BRANCH   1  15
ATOM     15  C   UNL     1      49.412   6.793  15.190  0.00  0.00    +0.000 C 
BRANCH  15  16
ATOM     16  C   UNL     1      48.647   6.534  16.494  0.00  0.00    +0.000 C 
BRANCH  16  21
ATOM     17  C   UNL     1      49.290   2.845  17.188  0.00  0.00    +0.000 A 
ATOM     18  C   UNL     1      47.988   2.447  17.442  0.00  0.00    +0.000 A 
ATOM     19  N   UNL     1      46.919   3.275  17.365  0.00  0.00    +0.000 NA
ATOM     20  C   UNL     1      47.165   4.565  17.039  0.00  0.00    +0.000 A 
ATOM     21  C   UNL     1      48.436   5.073  16.786  0.00  0.00    +0.000 A 
ATOM     22  C   UNL     1      49.514   4.182  16.847  0.00  0.00    +0.000 A 
BRANCH  17  24
ATOM     23  N   UNL     1      51.243   1.156  17.380  0.00  0.00    +0.000 NA
ATOM     24  C   UNL     1      50.367   1.916  17.294  0.00  0.00    +0.000 C 
ENDBRANCH  17  24
ENDBRANCH  16  21
ENDBRANCH  15  16
ENDBRANCH   1  15
TORSDOF 5
ENDMDL
