MODEL 1
REMARK VINA RESULT:    -6.045      0.000      0.000
REMARK INTER + INTRA:          -7.983
REMARK INTER:                  -7.635
REMARK INTRA:                  -0.349
REMARK UNBOUND:                -0.349
REMARK  Name = 
REMARK  5 active torsions:
REMARK  status: ('A' for Active; 'I' for Inactive)
REMARK    1  A    between atoms: N_1  and  C_2
REMARK    2  A    between atoms: C_2  and  C_3
REMARK    3  A    between atoms: C_7  and  C_8
REMARK    4  A    between atoms: C_9  and  C_10
REMARK    5  A    between atoms: C_14  and  C_15
REMARK                            x       y       z     vdW  Elec       q    Type
REMARK                         _______ _______ _______ _____ _____    ______ ____
ROOT
ATOM      1  C   UNL     1      46.611   4.600  14.292  0.00  0.00    +0.000 C 
ATOM      2  C   UNL     1      47.082   4.478  15.390  0.00  0.00    +0.000 C 
ENDROOT
BRANCH   1   7
ATOM      3  C   UNL     1      44.818   3.858  11.094  0.00  0.00    +0.000 A 
ATOM      4  C   UNL     1      45.158   5.002  10.354  0.00  0.00    +0.000 A 
ATOM      5  C   UNL     1      45.961   5.999  10.910  0.00  0.00    +0.000 A 
ATOM      6  C   UNL     1      46.432   5.864  12.214  0.00  0.00    +0.000 A 
ATOM      7  C   UNL     1      46.097   4.738  12.966  0.00  0.00    +0.000 A 
ATOM      8  C   UNL     1      45.288   3.741  12.412  0.00  0.00    +0.000 A 
BRANCH   3   9
ATOM      9  C   UNL     1      43.978   2.771  10.475  0.00  0.00    +0.000 C 
BRANCH   9  10
ATOM     10  N   UNL     1      43.178   2.085  11.482  0.00  0.00    +0.000 NA
ATOM     11  H   UNL     1      42.956   2.732  12.236  0.00  0.00    +0.000 HD
ATOM     12  H   UNL     1      43.736   1.338  11.894  0.00  0.00    +0.000 HD
ENDBRANCH   9  10
ENDBRANCH   3   9
ENDBRANCH   1   7
BRANCH   2  13
ATOM     13  C   UNL     1      47.666   4.302  16.683  0.00  0.00    +0.000 A 
ATOM     14  C   UNL     1      48.501   3.212  16.932  0.00  0.00    +0.000 A 
ATOM     15  C   UNL     1      49.047   3.032  18.202  0.00  0.00    +0.000 A 
ATOM     16  C   UNL     1      48.757   3.943  19.220  0.00  0.00    +0.000 A 
ATOM     17  C   UNL     1      47.922   5.044  18.976  0.00  0.00    +0.000 A 
ATOM     18  C   UNL     1      47.377   5.218  17.699  0.00  0.00    +0.000 A 
BRANCH  17  19
ATOM     19  C   UNL     1      47.651   5.980  20.107  0.00  0.00    +0.000 C 
ATOM     20  N   UNL     1      47.227   5.465  21.299  0.00  0.00    +0.000 N 
ATOM     21  O   UNL     1      47.801   7.191  19.985  0.00  0.00    +0.000 OA
ATOM     22  H   UNL     1      47.069   4.490  21.497  0.00  0.00    +0.000 HD
ATOM     23  H   UNL     1      47.051   6.129  22.042  0.00  0.00    +0.000 HD
ENDBRANCH  17  19
ENDBRANCH   2  13
TORSDOF 5
ENDMDL
MODEL 2
REMARK VINA RESULT:    -6.020      2.582      8.188
REMARK INTER + INTRA:          -7.952
REMARK INTER:                  -7.619
REMARK INTRA:                  -0.333
REMARK UNBOUND:                -0.349
REMARK  Name = 
REMARK  5 active torsions:
REMARK  status: ('A' for Active; 'I' for Inactive)
REMARK    1  A    between atoms: N_1  and  C_2
REMARK    2  A    between atoms: C_2  and  C_3
REMARK    3  A    between atoms: C_7  and  C_8
REMARK    4  A    between atoms: C_9  and  C_10
REMARK    5  A    between atoms: C_14  and  C_15
REMARK                            x       y       z     vdW  Elec       q    Type
REMARK                         _______ _______ _______ _____ _____    ______ ____
ROOT
ATOM      1  C   UNL     1      47.358   4.653  15.540  0.00  0.00    +0.000 C 
ATOM      2  C   UNL     1      46.863   4.748  14.450  0.00  0.00    +0.000 C 
ENDROOT
BRANCH   1   7
ATOM      3  C   UNL     1      47.963   5.165  19.196  0.00  0.00    +0.000 A 
ATOM      4  C   UNL     1      49.031   4.275  19.393  0.00  0.00    +0.000 A 
ATOM      5  C   UNL     1      49.533   3.518  18.333  0.00  0.00    +0.000 A 
ATOM      6  C   UNL     1      48.971   3.642  17.064  0.00  0.00    +0.000 A 
ATOM      7  C   UNL     1      47.905   4.516  16.854  0.00  0.00    +0.000 A 
ATOM      8  C   UNL     1      47.397   5.270  17.915  0.00  0.00    +0.000 A 
BRANCH   3   9
ATOM      9  C   UNL     1      47.448   6.004  20.338  0.00  0.00    +0.000 C 
BRANCH   9  10
ATOM     10  N   UNL     1      47.341   5.219  21.561  0.00  0.00    +0.000 NA
ATOM     11  H   UNL     1      47.328   5.844  22.364  0.00  0.00    +0.000 HD
ATOM     12  H   UNL     1      48.176   4.641  21.655  0.00  0.00    +0.000 HD
ENDBRANCH   9  10
ENDBRANCH   3   9
ENDBRANCH   1   7
BRANCH   2  13
ATOM     13  C   UNL     1      46.259   4.824  13.157  0.00  0.00    +0.000 A 
ATOM     14  C   UNL     1      46.437   5.962  12.367  0.00  0.00    +0.000 A 
ATOM     15  C   UNL     1      45.824   6.042  11.118  0.00  0.00    +0.000 A 
ATOM     16  C   UNL     1      45.036   4.984  10.660  0.00  0.00    +0.000 A 
ATOM     17  C   UNL     1      44.856   3.836  11.446  0.00  0.00    +0.000 A 
ATOM     18  C   UNL     1      45.473   3.762  12.700  0.00  0.00    +0.000 A 
BRANCH  17  19
ATOM     19  C   UNL     1      44.000   2.742  10.900  0.00  0.00    +0.000 C 
ATOM     20  N   UNL     1      44.437   2.049   9.805  0.00  0.00    +0.000 N 
ATOM     21  O   UNL     1      42.922   2.456  11.411  0.00  0.00    +0.000 OA
ATOM     22  H   UNL     1      45.301   2.210   9.314  0.00  0.00    +0.000 HD
ATOM     23  H   UNL     1      43.830   1.317   9.462  0.00  0.00    +0.000 HD
ENDBRANCH  17  19
ENDBRANCH   2  13
TORSDOF 5
ENDMDL
MODEL 3
REMARK VINA RESULT:    -5.942      3.466      8.347
REMARK INTER + INTRA:          -7.854
REMARK INTER:                  -7.509
REMARK INTRA:                  -0.344
REMARK UNBOUND:                -0.349
REMARK  Name = 
REMARK  5 active torsions:
REMARK  status: ('A' for Active; 'I' for Inactive)
REMARK    1  A    between atoms: N_1  and  C_2
REMARK    2  A    between atoms: C_2  and  C_3
REMARK    3  A    between atoms: C_7  and  C_8
REMARK    4  A    between atoms: C_9  and  C_10
REMARK    5  A    between atoms: C_14  and  C_15
REMARK                            x       y       z     vdW  Elec       q    Type
REMARK                         _______ _______ _______ _____ _____    ______ ____
ROOT
ATOM      1  C   UNL     1      46.781   4.601  14.755  0.00  0.00    +0.000 C 
ATOM      2  C   UNL     1      46.017   4.716  13.835  0.00  0.00    +0.000 C 
ENDROOT
BRANCH   1   7
ATOM      3  C   UNL     1      49.338   5.324  17.386  0.00  0.00    +0.000 A 
ATOM      4  C   UNL     1      49.395   4.073  18.022  0.00  0.00    +0.000 A 
ATOM      5  C   UNL     1      48.594   3.015  17.586  0.00  0.00    +0.000 A 
ATOM      6  C   UNL     1      47.727   3.198  16.511  0.00  0.00    +0.000 A 
ATOM      7  C   UNL     1      47.654   4.437  15.874  0.00  0.00    +0.000 A 
ATOM      8  C   UNL     1      48.451   5.498  16.313  0.00  0.00    +0.000 A 
BRANCH   3   9
ATOM      9  C   UNL     1      50.230   6.451  17.842  0.00  0.00    +0.000 C 
BRANCH   9  10
ATOM     10  N   UNL     1      50.391   7.452  16.794  0.00  0.00    +0.000 NA
ATOM     11  H   UNL     1      49.853   8.281  17.033  0.00  0.00    +0.000 HD
ATOM     12  H   UNL     1      49.996   7.087  15.928  0.00  0.00    +0.000 HD
ENDBRANCH   9  10
ENDBRANCH   3   9
ENDBRANCH   1   7
BRANCH   2  13
ATOM     13  C   UNL     1      45.095   4.817  12.747  0.00  0.00    +0.000 A 
ATOM     14  C   UNL     1      43.766   5.168  12.987  0.00  0.00    +0.000 A 
ATOM     15  C   UNL     1      42.865   5.240  11.926  0.00  0.00    +0.000 A 
ATOM     16  C   UNL     1      43.295   4.960  10.627  0.00  0.00    +0.000 A 
ATOM     17  C   UNL     1      44.631   4.610  10.378  0.00  0.00    +0.000 A 
ATOM     18  C   UNL     1      45.530   4.540  11.448  0.00  0.00    +0.000 A 
BRANCH  17  19
ATOM     19  C   UNL     1      45.027   4.323   8.968  0.00  0.00    +0.000 C 
ATOM     20  N   UNL     1      44.399   3.309   8.302  0.00  0.00    +0.000 N 
ATOM     21  O   UNL     1      45.898   4.976   8.402  0.00  0.00    +0.000 OA
ATOM     22  H   UNL     1      43.678   2.715   8.679  0.00  0.00    +0.000 HD
ATOM     23  H   UNL     1      44.695   3.142   7.349  0.00  0.00    +0.000 HD
ENDBRANCH  17  19
ENDBRANCH   2  13
TORSDOF 5
ENDMDL
MODEL 4
REMARK VINA RESULT:    -5.461      2.038      2.090
REMARK INTER + INTRA:          -7.246
REMARK INTER:                  -6.903
REMARK INTRA:                  -0.343
REMARK UNBOUND:                -0.349
REMARK  Name = 
REMARK  5 active torsions:
REMARK  status: ('A' for Active; 'I' for Inactive)
REMARK    1  A    between atoms: N_1  and  C_2
REMARK    2  A    between atoms: C_2  and  C_3
REMARK    3  A    between atoms: C_7  and  C_8
REMARK    4  A    between atoms: C_9  and  C_10
REMARK    5  A    between atoms: C_14  and  C_15
REMARK                            x       y       z     vdW  Elec       q    Type
REMARK                         _______ _______ _______ _____ _____    ______ ____
ROOT
ATOM      1  C   UNL     1      46.107   4.511  13.964  0.00  0.00    +0.000 C 
ATOM      2  C   UNL     1      46.821   4.416  14.926  0.00  0.00    +0.000 C 
ENDROOT
BRANCH   1   7
ATOM      3  C   UNL     1      44.444   3.926  10.665  0.00  0.00    +0.000 A 
ATOM      4  C   UNL     1      43.586   5.036  10.625  0.00  0.00    +0.000 A 
ATOM      5  C   UNL     1      43.558   5.955  11.675  0.00  0.00    +0.000 A 
ATOM      6  C   UNL     1      44.388   5.772  12.780  0.00  0.00    +0.000 A 
ATOM      7  C   UNL     1      45.241   4.670  12.839  0.00  0.00    +0.000 A 
ATOM      8  C   UNL     1      45.265   3.746  11.790  0.00  0.00    +0.000 A 
BRANCH   3   9
ATOM      9  C   UNL     1      44.492   2.956   9.512  0.00  0.00    +0.000 C 
BRANCH   9  10
ATOM     10  N   UNL     1      44.377   3.650   8.235  0.00  0.00    +0.000 NA
ATOM     11  H   UNL     1      45.005   3.221   7.560  0.00  0.00    +0.000 HD
ATOM     12  H   UNL     1      44.691   4.613   8.355  0.00  0.00    +0.000 HD
ENDBRANCH   9  10
ENDBRANCH   3   9
ENDBRANCH   1   7
BRANCH   2  13
ATOM     13  C   UNL     1      47.676   4.341  16.069  0.00  0.00    +0.000 A 
ATOM     14  C   UNL     1      47.776   3.151  16.791  0.00  0.00    +0.000 A 
ATOM     15  C   UNL     1      48.591   3.091  17.920  0.00  0.00    +0.000 A 
ATOM     16  C   UNL     1      49.305   4.221  18.324  0.00  0.00    +0.000 A 
ATOM     17  C   UNL     1      49.212   5.421  17.601  0.00  0.00    +0.000 A 
ATOM     18  C   UNL     1      48.391   5.473  16.469  0.00  0.00    +0.000 A 
BRANCH  17  19
ATOM     19  C   UNL     1      49.999   6.592  18.085  0.00  0.00    +0.000 C 
ATOM     20  N   UNL     1      49.332   7.728  18.448  0.00  0.00    +0.000 N 
ATOM     21  O   UNL     1      51.223   6.552  18.163  0.00  0.00    +0.000 OA
ATOM     22  H   UNL     1      48.335   7.860  18.416  0.00  0.00    +0.000 HD
ATOM     23  H   UNL     1      49.899   8.502  18.770  0.00  0.00    +0.000 HD
ENDBRANCH  17  19
ENDBRANCH   2  13
TORSDOF 5
ENDMDL
MODEL 5
REMARK VINA RESULT:    -5.438      2.131      2.545
REMARK INTER + INTRA:          -7.216
REMARK INTER:                  -6.859
REMARK INTRA:                  -0.358
REMARK UNBOUND:                -0.349
REMARK  Name = 
REMARK  5 active torsions:
REMARK  status: ('A' for Active; 'I' for Inactive)
REMARK    1  A    between atoms: N_1  and  C_2
REMARK    2  A    between atoms: C_2  and  C_3
REMARK    3  A    between atoms: C_7  and  C_8
REMARK    4  A    between atoms: C_9  and  C_10
REMARK    5  A    between atoms: C_14  and  C_15
REMARK                            x       y       z     vdW  Elec       q    Type
REMARK                         _______ _______ _______ _____ _____    ______ ____
ROOT
ATOM      1  C   UNL     1      46.879   4.808  14.548  0.00  0.00    +0.000 C 
ATOM      2  C   UNL     1      47.415   4.707  15.619  0.00  0.00    +0.000 C 
ENDROOT
BRANCH   1   7
ATOM      3  C   UNL     1      44.480   4.288  11.726  0.00  0.00    +0.000 A 
ATOM      4  C   UNL     1      44.962   5.244  10.818  0.00  0.00    +0.000 A 
ATOM      5  C   UNL     1      46.057   6.047  11.141  0.00  0.00    +0.000 A 
ATOM      6  C   UNL     1      46.681   5.903  12.379  0.00  0.00    +0.000 A 
ATOM      7  C   UNL     1      46.210   4.964  13.295  0.00  0.00    +0.000 A 
ATOM      8  C   UNL     1      45.110   4.163  12.974  0.00  0.00    +0.000 A 
BRANCH   3   9
ATOM      9  C   UNL     1      43.318   3.402  11.356  0.00  0.00    +0.000 C 
BRANCH   9  10
ATOM     10  N   UNL     1      43.389   2.122  12.050  0.00  0.00    +0.000 NA
ATOM     11  H   UNL     1      43.966   1.478  11.515  0.00  0.00    +0.000 HD
ATOM     12  H   UNL     1      42.455   1.715  12.086  0.00  0.00    +0.000 HD
ENDBRANCH   9  10
ENDBRANCH   3   9
ENDBRANCH   1   7
BRANCH   2  13
ATOM     13  C   UNL     1      48.050   4.626  16.896  0.00  0.00    +0.000 A 
ATOM     14  C   UNL     1      47.382   5.068  18.039  0.00  0.00    +0.000 A 
ATOM     15  C   UNL     1      48.016   5.011  19.279  0.00  0.00    +0.000 A 
ATOM     16  C   UNL     1      49.317   4.512  19.374  0.00  0.00    +0.000 A 
ATOM     17  C   UNL     1      49.994   4.062  18.230  0.00  0.00    +0.000 A 
ATOM     18  C   UNL     1      49.351   4.123  16.988  0.00  0.00    +0.000 A 
BRANCH  17  19
ATOM     19  C   UNL     1      51.382   3.542  18.399  0.00  0.00    +0.000 C 
ATOM     20  N   UNL     1      52.124   3.979  19.460  0.00  0.00    +0.000 N 
ATOM     21  O   UNL     1      51.864   2.736  17.609  0.00  0.00    +0.000 OA
ATOM     22  H   UNL     1      51.821   4.639  20.157  0.00  0.00    +0.000 HD
ATOM     23  H   UNL     1      53.060   3.605  19.541  0.00  0.00    +0.000 HD
ENDBRANCH  17  19
ENDBRANCH   2  13
TORSDOF 5
ENDMDL
MODEL 6
REMARK VINA RESULT:    -5.433      5.767      6.709
REMARK INTER + INTRA:          -7.210
REMARK INTER:                  -6.856
REMARK INTRA:                  -0.355
REMARK UNBOUND:                -0.349
REMARK  Name = 
REMARK  5 active torsions:
REMARK  status: ('A' for Active; 'I' for Inactive)
REMARK    1  A    between atoms: N_1  and  C_2
REMARK    2  A    between atoms: C_2  and  C_3
REMARK    3  A    between atoms: C_7  and  C_8
REMARK    4  A    between atoms: C_9  and  C_10
REMARK    5  A    between atoms: C_14  and  C_15
REMARK                            x       y       z     vdW  Elec       q    Type
REMARK                         _______ _______ _______ _____ _____    ______ ____
ROOT
ATOM      1  C   UNL     1      46.468   6.480  11.865  0.00  0.00    +0.000 C 
ATOM      2  C   UNL     1      47.377   7.265  11.821  0.00  0.00    +0.000 C 
ENDROOT
BRANCH   1   7
ATOM      3  C   UNL     1      44.288   3.595  10.910  0.00  0.00    +0.000 A 
ATOM      4  C   UNL     1      43.260   3.744  11.854  0.00  0.00    +0.000 A 
ATOM      5  C   UNL     1      43.295   4.779  12.790  0.00  0.00    +0.000 A 
ATOM      6  C   UNL     1      44.362   5.675  12.794  0.00  0.00    +0.000 A 
ATOM      7  C   UNL     1      45.396   5.536  11.868  0.00  0.00    +0.000 A 
ATOM      8  C   UNL     1      45.363   4.497  10.933  0.00  0.00    +0.000 A 
BRANCH   3   9
ATOM      9  C   UNL     1      44.226   2.495   9.882  0.00  0.00    +0.000 C 
BRANCH   9  10
ATOM     10  N   UNL     1      44.296   3.033   8.529  0.00  0.00    +0.000 NA
ATOM     11  H   UNL     1      45.202   2.811   8.123  0.00  0.00    +0.000 HD
ATOM     12  H   UNL     1      44.239   4.050   8.577  0.00  0.00    +0.000 HD
ENDBRANCH   9  10
ENDBRANCH   3   9
ENDBRANCH   1   7
BRANCH   2  13
ATOM     13  C   UNL     1      48.478   8.174  11.746  0.00  0.00    +0.000 A 
ATOM     14  C   UNL     1      48.265   9.545  11.896  0.00  0.00    +0.000 A 
ATOM     15  C   UNL     1      49.338  10.428  11.795  0.00  0.00    +0.000 A 
ATOM     16  C   UNL     1      50.622   9.939  11.545  0.00  0.00    +0.000 A 
ATOM     17  C   UNL     1      50.844   8.561  11.397  0.00  0.00    +0.000 A 
ATOM     18  C   UNL     1      49.762   7.680  11.499  0.00  0.00    +0.000 A 
BRANCH  17  19
ATOM     19  C   UNL     1      52.239   8.103  11.130  0.00  0.00    +0.000 C 
ATOM     20  N   UNL     1      52.432   6.868  10.577  0.00  0.00    +0.000 N 
ATOM     21  O   UNL     1      53.207   8.808  11.397  0.00  0.00    +0.000 OA
ATOM     22  H   UNL     1      51.707   6.216  10.327  0.00  0.00    +0.000 HD
ATOM     23  H   UNL     1      53.391   6.591  10.412  0.00  0.00    +0.000 HD
ENDBRANCH  17  19
ENDBRANCH   2  13
TORSDOF 5
ENDMDL
MODEL 7
REMARK VINA RESULT:    -5.314      2.168      2.580
REMARK INTER + INTRA:          -7.060
REMARK INTER:                  -6.721
REMARK INTRA:                  -0.339
REMARK UNBOUND:                -0.349
REMARK  Name = 
REMARK  5 active torsions:
REMARK  status: ('A' for Active; 'I' for Inactive)
REMARK    1  A    between atoms: N_1  and  C_2
REMARK    2  A    between atoms: C_2  and  C_3
REMARK    3  A    between atoms: C_7  and  C_8
REMARK    4  A    between atoms: C_9  and  C_10
REMARK    5  A    between atoms: C_14  and  C_15
REMARK                            x       y       z     vdW  Elec       q    Type
REMARK                         _______ _______ _______ _____ _____    ______ ____
ROOT
ATOM      1  C   UNL     1      46.268   4.932  13.786  0.00  0.00    +0.000 C 
ATOM      2  C   UNL     1      47.129   5.203  14.578  0.00  0.00    +0.000 C 
ENDROOT
BRANCH   1   7
ATOM      3  C   UNL     1      44.389   3.471  10.900  0.00  0.00    +0.000 A 
ATOM      4  C   UNL     1      43.145   4.096  11.078  0.00  0.00    +0.000 A 
ATOM      5  C   UNL     1      42.935   4.979  12.139  0.00  0.00    +0.000 A 
ATOM      6  C   UNL     1      43.969   5.245  13.035  0.00  0.00    +0.000 A 
ATOM      7  C   UNL     1      45.209   4.626  12.876  0.00  0.00    +0.000 A 
ATOM      8  C   UNL     1      45.417   3.738  11.818  0.00  0.00    +0.000 A 
BRANCH   3   9
ATOM      9  C   UNL     1      44.617   2.544   9.734  0.00  0.00    +0.000 C 
BRANCH   9  10
ATOM     10  N   UNL     1      44.322   3.206   8.469  0.00  0.00    +0.000 NA
ATOM     11  H   UNL     1      43.484   2.797   8.061  0.00  0.00    +0.000 HD
ATOM     12  H   UNL     1      45.084   3.024   7.817  0.00  0.00    +0.000 HD
ENDBRANCH   9  10
ENDBRANCH   3   9
ENDBRANCH   1   7
BRANCH   2  13
ATOM     13  C   UNL     1      48.133   5.559  15.532  0.00  0.00    +0.000 A 
ATOM     14  C   UNL     1      48.973   6.646  15.290  0.00  0.00    +0.000 A 
ATOM     15  C   UNL     1      49.968   6.972  16.211  0.00  0.00    +0.000 A 
ATOM     16  C   UNL     1      50.119   6.210  17.371  0.00  0.00    +0.000 A 
ATOM     17  C   UNL     1      49.275   5.118  17.623  0.00  0.00    +0.000 A 
ATOM     18  C   UNL     1      48.279   4.796  16.694  0.00  0.00    +0.000 A 
BRANCH  17  19
ATOM     19  C   UNL     1      49.490   4.344  18.881  0.00  0.00    +0.000 C 
ATOM     20  N   UNL     1      48.497   3.514  19.320  0.00  0.00    +0.000 N 
ATOM     21  O   UNL     1      50.532   4.439  19.521  0.00  0.00    +0.000 OA
ATOM     22  H   UNL     1      47.607   3.372  18.871  0.00  0.00    +0.000 HD
ATOM     23  H   UNL     1      48.677   3.008  20.177  0.00  0.00    +0.000 HD
ENDBRANCH  17  19
ENDBRANCH   2  13
TORSDOF 5
ENDMDL
MODEL 8
REMARK VINA RESULT:    -5.251      4.373      5.260
REMARK INTER + INTRA:          -6.980
REMARK INTER:                  -6.624
REMARK INTRA:                  -0.356
REMARK UNBOUND:                -0.349
REMARK  Name = 
REMARK  5 active torsions:
REMARK  status: ('A' for Active; 'I' for Inactive)
REMARK    1  A    between atoms: N_1  and  C_2
REMARK    2  A    between atoms: C_2  and  C_3
REMARK    3  A    between atoms: C_7  and  C_8
REMARK    4  A    between atoms: C_9  and  C_10
REMARK    5  A    between atoms: C_14  and  C_15
REMARK                            x       y       z     vdW  Elec       q    Type
REMARK                         _______ _______ _______ _____ _____    ______ ____
ROOT
ATOM      1  C   UNL     1      46.262   6.537  11.378  0.00  0.00    +0.000 C 
ATOM      2  C   UNL     1      46.904   7.404  11.908  0.00  0.00    +0.000 C 
ENDROOT
BRANCH   1   7
ATOM      3  C   UNL     1      45.182   4.009   8.842  0.00  0.00    +0.000 A 
ATOM      4  C   UNL     1      44.080   3.450   9.509  0.00  0.00    +0.000 A 
ATOM      5  C   UNL     1      43.710   3.902  10.777  0.00  0.00    +0.000 A 
ATOM      6  C   UNL     1      44.440   4.917  11.392  0.00  0.00    +0.000 A 
ATOM      7  C   UNL     1      45.542   5.477  10.746  0.00  0.00    +0.000 A 
ATOM      8  C   UNL     1      45.916   5.021   9.479  0.00  0.00    +0.000 A 
BRANCH   3   9
ATOM      9  C   UNL     1      45.555   3.538   7.459  0.00  0.00    +0.000 C 
BRANCH   9  10
ATOM     10  N   UNL     1      46.833   4.099   7.039  0.00  0.00    +0.000 NA
ATOM     11  H   UNL     1      47.133   4.800   7.712  0.00  0.00    +0.000 HD
ATOM     12  H   UNL     1      46.704   4.583   6.151  0.00  0.00    +0.000 HD
ENDBRANCH   9  10
ENDBRANCH   3   9
ENDBRANCH   1   7
BRANCH   2  13
ATOM     13  C   UNL     1      47.686   8.407  12.558  0.00  0.00    +0.000 A 
ATOM     14  C   UNL     1      48.375   9.357  11.801  0.00  0.00    +0.000 A 
ATOM     15  C   UNL     1      49.158  10.317  12.440  0.00  0.00    +0.000 A 
ATOM     16  C   UNL     1      49.250  10.327  13.833  0.00  0.00    +0.000 A 
ATOM     17  C   UNL     1      48.557   9.378  14.601  0.00  0.00    +0.000 A 
ATOM     18  C   UNL     1      47.774   8.416  13.953  0.00  0.00    +0.000 A 
BRANCH  17  19
ATOM     19  C   UNL     1      48.698   9.442  16.085  0.00  0.00    +0.000 C 
ATOM     20  N   UNL     1      47.572   9.378  16.856  0.00  0.00    +0.000 N 
ATOM     21  O   UNL     1      49.797   9.549  16.619  0.00  0.00    +0.000 OA
ATOM     22  H   UNL     1      46.629   9.295  16.514  0.00  0.00    +0.000 HD
ATOM     23  H   UNL     1      47.707   9.427  17.857  0.00  0.00    +0.000 HD
ENDBRANCH  17  19
ENDBRANCH   2  13
TORSDOF 5
ENDMDL
MODEL 9
REMARK VINA RESULT:    -5.146      5.699      8.406
REMARK INTER + INTRA:          -6.849
REMARK INTER:                  -6.512
REMARK INTRA:                  -0.337
REMARK UNBOUND:                -0.349
REMARK  Name = 
REMARK  5 active torsions:
REMARK  status: ('A' for Active; 'I' for Inactive)
REMARK    1  A    between atoms: N_1  and  C_2
REMARK    2  A    between atoms: C_2  and  C_3
REMARK    3  A    between atoms: C_7  and  C_8
REMARK    4  A    between atoms: C_9  and  C_10
REMARK    5  A    between atoms: C_14  and  C_15
REMARK                            x       y       z     vdW  Elec       q    Type
REMARK                         _______ _______ _______ _____ _____    ______ ____
ROOT
ATOM      1  C   UNL     1      47.976   7.835  11.693  0.00  0.00    +0.000 C 
ATOM      2  C   UNL     1      47.023   7.104  11.720  0.00  0.00    +0.000 C 
ENDROOT
BRANCH   1   7
ATOM      3  C   UNL     1      51.556   8.917  11.734  0.00  0.00    +0.000 A 
ATOM      4  C   UNL     1      51.389  10.311  11.706  0.00  0.00    +0.000 A 
ATOM      5  C   UNL     1      50.113  10.876  11.668  0.00  0.00    +0.000 A 
ATOM      6  C   UNL     1      48.990  10.052  11.656  0.00  0.00    +0.000 A 
ATOM      7  C   UNL     1      49.139   8.666  11.676  0.00  0.00    +0.000 A 
ATOM      8  C   UNL     1      50.416   8.099  11.708  0.00  0.00    +0.000 A 
BRANCH   3   9
ATOM      9  C   UNL     1      52.936   8.316  11.808  0.00  0.00    +0.000 C 
BRANCH   9  10
ATOM     10  N   UNL     1      53.229   7.832  13.151  0.00  0.00    +0.000 NA
ATOM     11  H   UNL     1      52.761   8.425  13.834  0.00  0.00    +0.000 HD
ATOM     12  H   UNL     1      54.230   7.923  13.323  0.00  0.00    +0.000 HD
ENDBRANCH   9  10
ENDBRANCH   3   9
ENDBRANCH   1   7
BRANCH   2  13
ATOM     13  C   UNL     1      45.912   6.204  11.737  0.00  0.00    +0.000 A 
ATOM     14  C   UNL     1      45.030   6.203  12.818  0.00  0.00    +0.000 A 
ATOM     15  C   UNL     1      43.963   5.306  12.842  0.00  0.00    +0.000 A 
ATOM     16  C   UNL     1      43.782   4.412  11.785  0.00  0.00    +0.000 A 
ATOM     17  C   UNL     1      44.663   4.410  10.692  0.00  0.00    +0.000 A 
ATOM     18  C   UNL     1      45.732   5.313  10.675  0.00  0.00    +0.000 A 
BRANCH  17  19
ATOM     19  C   UNL     1      44.414   3.429   9.595  0.00  0.00    +0.000 C 
ATOM     20  N   UNL     1      44.359   2.099   9.902  0.00  0.00    +0.000 N 
ATOM     21  O   UNL     1      44.259   3.794   8.434  0.00  0.00    +0.000 OA
ATOM     22  H   UNL     1      44.477   1.701  10.820  0.00  0.00    +0.000 HD
ATOM     23  H   UNL     1      44.190   1.464   9.133  0.00  0.00    +0.000 HD
ENDBRANCH  17  19
ENDBRANCH   2  13
TORSDOF 5
ENDMDL
