MODEL 1
REMARK VINA RESULT:    -7.604      0.000      0.000
REMARK INTER + INTRA:          -9.893
REMARK INTER:                  -9.160
REMARK INTRA:                  -0.733
REMARK UNBOUND:                -0.733
REMARK  Name = 
REMARK  4 active torsions:
REMARK  status: ('A' for Active; 'I' for Inactive)
REMARK    1  A    between atoms: O_1  and  C_2
REMARK    2  A    between atoms: C_5  and  C_6
REMARK    3  A    between atoms: C_6  and  C_7
REMARK    4  A    between atoms: C_11  and  C_12
REMARK                            x       y       z     vdW  Elec       q    Type
REMARK                         _______ _______ _______ _____ _____    ______ ____
ROOT
ATOM      1  C   UNL     1      45.434   4.951  12.014  0.00  0.00    +0.000 A 
ATOM      2  C   UNL     1      45.777   4.231  13.168  0.00  0.00    +0.000 A 
ATOM      3  C   UNL     1      46.821   4.644  13.992  0.00  0.00    +0.000 A 
ATOM      4  C   UNL     1      47.540   5.800  13.682  0.00  0.00    +0.000 A 
ATOM      5  C   UNL     1      47.201   6.588  12.571  0.00  0.00    +0.000 A 
ATOM      6  C   UNL     1      46.117   6.163  11.779  0.00  0.00    +0.000 A 
ENDROOT
BRANCH   5   7
ATOM      7  C   UNL     1      48.001   7.769  12.190  0.00  0.00    +0.000 A 
ATOM      8  C   UNL     1      49.353   7.658  11.830  0.00  0.00    +0.000 A 
ATOM      9  C   UNL     1      50.078   8.783  11.440  0.00  0.00    +0.000 A 
ATOM     10  C   UNL     1      49.428  10.003  11.406  0.00  0.00    +0.000 A 
ATOM     11  N   UNL     1      48.132  10.168  11.735  0.00  0.00    +0.000 NA
ATOM     12  C   UNL     1      47.458   9.053  12.121  0.00  0.00    +0.000 A 
ENDBRANCH   5   7
BRANCH   1  13
ATOM     13  C   UNL     1      44.490   4.357  10.964  0.00  0.00    +0.000 C 
ATOM     14  C   UNL     1      43.170   3.766  11.471  0.00  0.00    +0.000 C 
ATOM     15  C   UNL     1      43.155   5.099  10.810  0.00  0.00    +0.000 C 
BRANCH  13  19
ATOM     16  C   UNL     1      46.368   2.592   7.459  0.00  0.00    +0.000 A 
ATOM     17  C   UNL     1      46.313   3.974   7.584  0.00  0.00    +0.000 A 
ATOM     18  C   UNL     1      45.676   4.542   8.696  0.00  0.00    +0.000 A 
ATOM     19  C   UNL     1      45.096   3.744   9.700  0.00  0.00    +0.000 A 
ATOM     20  C   UNL     1      45.152   2.349   9.522  0.00  0.00    +0.000 A 
ATOM     21  C   UNL     1      45.784   1.774   8.417  0.00  0.00    +0.000 A 
BRANCH  16  22
ATOM     22  O   UNL     1      46.996   1.992   6.410  0.00  0.00    +0.000 OA
ATOM     23  H   UNL     1      47.872   2.396   6.299  0.00  0.00    +0.000 HD
ENDBRANCH  16  22
ENDBRANCH  13  19
ENDBRANCH   1  13
TORSDOF 4
ENDMDL
MODEL 2
REMARK VINA RESULT:    -7.313      2.099      3.481
REMARK INTER + INTRA:          -9.542
REMARK INTER:                  -8.906
REMARK INTRA:                  -0.636
REMARK UNBOUND:                -0.733
REMARK  Name = 
REMARK  4 active torsions:
REMARK  status: ('A' for Active; 'I' for Inactive)
REMARK    1  A    between atoms: O_1  and  C_2
REMARK    2  A    between atoms: C_5  and  C_6
REMARK    3  A    between atoms: C_6  and  C_7
REMARK    4  A    between atoms: C_11  and  C_12
REMARK                            x       y       z     vdW  Elec       q    Type
REMARK                         _______ _______ _______ _____ _____    ______ ____
ROOT
ATOM      1  C   UNL     1      45.622   5.444  11.544  0.00  0.00    +0.000 A 
ATOM      2  C   UNL     1      45.700   6.816  11.259  0.00  0.00    +0.000 A 
ATOM      3  C   UNL     1      46.358   7.694  12.115  0.00  0.00    +0.000 A 
ATOM      4  C   UNL     1      46.964   7.213  13.277  0.00  0.00    +0.000 A 
ATOM      5  C   UNL     1      46.965   5.843  13.580  0.00  0.00    +0.000 A 
ATOM      6  C   UNL     1      46.323   4.977  12.675  0.00  0.00    +0.000 A 
ENDROOT
BRANCH   5   7
ATOM      7  C   UNL     1      47.536   5.333  14.842  0.00  0.00    +0.000 A 
ATOM      8  C   UNL     1      47.139   4.102  15.388  0.00  0.00    +0.000 A 
ATOM      9  C   UNL     1      47.720   3.626  16.562  0.00  0.00    +0.000 A 
ATOM     10  C   UNL     1      48.700   4.390  17.166  0.00  0.00    +0.000 A 
ATOM     11  N   UNL     1      49.125   5.575  16.686  0.00  0.00    +0.000 NA
ATOM     12  C   UNL     1      48.531   6.015  15.545  0.00  0.00    +0.000 A 
ENDBRANCH   5   7
BRANCH   1  13
ATOM     13  C   UNL     1      44.670   4.528  10.767  0.00  0.00    +0.000 C 
ATOM     14  C   UNL     1      43.544   3.861  11.564  0.00  0.00    +0.000 C 
ATOM     15  C   UNL     1      43.220   5.025  10.695  0.00  0.00    +0.000 C 
BRANCH  13  19
ATOM     16  C   UNL     1      46.363   2.371   7.390  0.00  0.00    +0.000 A 
ATOM     17  C   UNL     1      46.373   3.760   7.390  0.00  0.00    +0.000 A 
ATOM     18  C   UNL     1      45.794   4.454   8.462  0.00  0.00    +0.000 A 
ATOM     19  C   UNL     1      45.211   3.777   9.549  0.00  0.00    +0.000 A 
ATOM     20  C   UNL     1      45.201   2.371   9.498  0.00  0.00    +0.000 A 
ATOM     21  C   UNL     1      45.773   1.671   8.433  0.00  0.00    +0.000 A 
BRANCH  16  22
ATOM     22  O   UNL     1      46.932   1.651   6.383  0.00  0.00    +0.000 OA
ATOM     23  H   UNL     1      47.395   0.890   6.769  0.00  0.00    +0.000 HD
ENDBRANCH  16  22
ENDBRANCH  13  19
ENDBRANCH   1  13
TORSDOF 4
ENDMDL
MODEL 3
REMARK VINA RESULT:    -7.274      1.533      1.963
REMARK INTER + INTRA:          -9.495
REMARK INTER:                  -8.817
REMARK INTRA:                  -0.678
REMARK UNBOUND:                -0.733
REMARK  Name = 
REMARK  4 active torsions:
REMARK  status: ('A' for Active; 'I' for Inactive)
REMARK    1  A    between atoms: O_1  and  C_2
REMARK    2  A    between atoms: C_5  and  C_6
REMARK    3  A    between atoms: C_6  and  C_7
REMARK    4  A    between atoms: C_11  and  C_12
REMARK                            x       y       z     vdW  Elec       q    Type
REMARK                         _______ _______ _______ _____ _____    ______ ____
ROOT
ATOM      1  C   UNL     1      45.214   5.470  12.245  0.00  0.00    +0.000 A 
ATOM      2  C   UNL     1      46.290   4.990  13.007  0.00  0.00    +0.000 A 
ATOM      3  C   UNL     1      47.246   5.856  13.531  0.00  0.00    +0.000 A 
ATOM      4  C   UNL     1      47.139   7.230  13.310  0.00  0.00    +0.000 A 
ATOM      5  C   UNL     1      46.052   7.768  12.603  0.00  0.00    +0.000 A 
ATOM      6  C   UNL     1      45.083   6.869  12.119  0.00  0.00    +0.000 A 
ENDROOT
BRANCH   5   7
ATOM      7  C   UNL     1      45.968   9.210  12.299  0.00  0.00    +0.000 A 
ATOM      8  C   UNL     1      47.118   9.986  12.083  0.00  0.00    +0.000 A 
ATOM      9  C   UNL     1      47.011  11.338  11.761  0.00  0.00    +0.000 A 
ATOM     10  C   UNL     1      45.748  11.889  11.650  0.00  0.00    +0.000 A 
ATOM     11  N   UNL     1      44.611  11.192  11.840  0.00  0.00    +0.000 NA
ATOM     12  C   UNL     1      44.751   9.879  12.163  0.00  0.00    +0.000 A 
ENDBRANCH   5   7
BRANCH   1  13
ATOM     13  C   UNL     1      44.330   4.516  11.437  0.00  0.00    +0.000 C 
ATOM     14  C   UNL     1      43.344   3.646  12.225  0.00  0.00    +0.000 C 
ATOM     15  C   UNL     1      42.829   4.833  11.490  0.00  0.00    +0.000 C 
BRANCH  13  19
ATOM     16  C   UNL     1      46.038   2.867   7.791  0.00  0.00    +0.000 A 
ATOM     17  C   UNL     1      46.040   4.242   7.988  0.00  0.00    +0.000 A 
ATOM     18  C   UNL     1      45.456   4.774   9.147  0.00  0.00    +0.000 A 
ATOM     19  C   UNL     1      44.875   3.947  10.125  0.00  0.00    +0.000 A 
ATOM     20  C   UNL     1      44.874   2.562   9.876  0.00  0.00    +0.000 A 
ATOM     21  C   UNL     1      45.451   2.023   8.724  0.00  0.00    +0.000 A 
BRANCH  16  22
ATOM     22  O   UNL     1      46.612   2.300   6.694  0.00  0.00    +0.000 OA
ATOM     23  H   UNL     1      47.151   1.545   6.980  0.00  0.00    +0.000 HD
ENDBRANCH  16  22
ENDBRANCH  13  19
ENDBRANCH   1  13
TORSDOF 4
ENDMDL
MODEL 4
REMARK VINA RESULT:    -6.808      2.005      2.763
REMARK INTER + INTRA:          -8.934
REMARK INTER:                  -8.418
REMARK INTRA:                  -0.516
REMARK UNBOUND:                -0.733
REMARK  Name = 
REMARK  4 active torsions:
REMARK  status: ('A' for Active; 'I' for Inactive)
REMARK    1  A    between atoms: O_1  and  C_2
REMARK    2  A    between atoms: C_5  and  C_6
REMARK    3  A    between atoms: C_6  and  C_7
REMARK    4  A    between atoms: C_11  and  C_12
REMARK                            x       y       z     vdW  Elec       q    Type
REMARK                         _______ _______ _______ _____ _____    ______ ____
ROOT
ATOM      1  C   UNL     1      45.177   6.300  11.670  0.00  0.00    +0.000 A 
ATOM      2  C   UNL     1      44.697   7.600  11.453  0.00  0.00    +0.000 A 
ATOM      3  C   UNL     1      45.286   8.700  12.069  0.00  0.00    +0.000 A 
ATOM      4  C   UNL     1      46.383   8.521  12.915  0.00  0.00    +0.000 A 
ATOM      5  C   UNL     1      46.938   7.248  13.123  0.00  0.00    +0.000 A 
ATOM      6  C   UNL     1      46.342   6.163  12.455  0.00  0.00    +0.000 A 
ENDROOT
BRANCH   5   7
ATOM      7  C   UNL     1      48.048   7.038  14.073  0.00  0.00    +0.000 A 
ATOM      8  C   UNL     1      49.125   7.933  14.160  0.00  0.00    +0.000 A 
ATOM      9  C   UNL     1      50.143   7.732  15.090  0.00  0.00    +0.000 A 
ATOM     10  C   UNL     1      50.058   6.636  15.929  0.00  0.00    +0.000 A 
ATOM     11  N   UNL     1      49.046   5.747  15.895  0.00  0.00    +0.000 NA
ATOM     12  C   UNL     1      48.075   5.968  14.970  0.00  0.00    +0.000 A 
ENDBRANCH   5   7
BRANCH   1  13
ATOM     13  C   UNL     1      44.370   5.075  11.229  0.00  0.00    +0.000 C 
ATOM     14  C   UNL     1      43.574   4.340  12.313  0.00  0.00    +0.000 C 
ATOM     15  C   UNL     1      42.849   5.228  11.364  0.00  0.00    +0.000 C 
BRANCH  13  19
ATOM     16  C   UNL     1      45.986   2.685   7.973  0.00  0.00    +0.000 A 
ATOM     17  C   UNL     1      46.119   4.067   7.940  0.00  0.00    +0.000 A 
ATOM     18  C   UNL     1      45.566   4.838   8.972  0.00  0.00    +0.000 A 
ATOM     19  C   UNL     1      44.885   4.245  10.051  0.00  0.00    +0.000 A 
ATOM     20  C   UNL     1      44.752   2.844  10.034  0.00  0.00    +0.000 A 
ATOM     21  C   UNL     1      45.299   2.068   9.009  0.00  0.00    +0.000 A 
BRANCH  16  22
ATOM     22  O   UNL     1      46.525   1.890   7.006  0.00  0.00    +0.000 OA
ATOM     23  H   UNL     1      46.938   2.455   6.334  0.00  0.00    +0.000 HD
ENDBRANCH  16  22
ENDBRANCH  13  19
ENDBRANCH   1  13
TORSDOF 4
ENDMDL
MODEL 5
REMARK VINA RESULT:    -6.406      3.243      6.452
REMARK INTER + INTRA:          -8.450
REMARK INTER:                  -8.060
REMARK INTRA:                  -0.390
REMARK UNBOUND:                -0.733
REMARK  Name = 
REMARK  4 active torsions:
REMARK  status: ('A' for Active; 'I' for Inactive)
REMARK    1  A    between atoms: O_1  and  C_2
REMARK    2  A    between atoms: C_5  and  C_6
REMARK    3  A    between atoms: C_6  and  C_7
REMARK    4  A    between atoms: C_11  and  C_12
REMARK                            x       y       z     vdW  Elec       q    Type
REMARK                         _______ _______ _______ _____ _____    ______ ____
ROOT
ATOM      1  C   UNL     1      45.047   6.519  11.653  0.00  0.00    +0.000 A 
ATOM      2  C   UNL     1      43.723   6.297  12.062  0.00  0.00    +0.000 A 
ATOM      3  C   UNL     1      42.968   5.257  11.527  0.00  0.00    +0.000 A 
ATOM      4  C   UNL     1      43.529   4.405  10.573  0.00  0.00    +0.000 A 
ATOM      5  C   UNL     1      44.867   4.548  10.171  0.00  0.00    +0.000 A 
ATOM      6  C   UNL     1      45.614   5.587  10.759  0.00  0.00    +0.000 A 
ENDROOT
BRANCH   5   7
ATOM      7  C   UNL     1      45.447   3.703   9.109  0.00  0.00    +0.000 A 
ATOM      8  C   UNL     1      46.076   4.260   7.985  0.00  0.00    +0.000 A 
ATOM      9  C   UNL     1      46.648   3.440   7.013  0.00  0.00    +0.000 A 
ATOM     10  C   UNL     1      46.589   2.071   7.192  0.00  0.00    +0.000 A 
ATOM     11  N   UNL     1      46.003   1.481   8.253  0.00  0.00    +0.000 NA
ATOM     12  C   UNL     1      45.446   2.309   9.176  0.00  0.00    +0.000 A 
ENDBRANCH   5   7
BRANCH   1  13
ATOM     13  C   UNL     1      45.781   7.813  12.019  0.00  0.00    +0.000 C 
ATOM     14  C   UNL     1      45.312   9.097  11.325  0.00  0.00    +0.000 C 
ATOM     15  C   UNL     1      44.917   8.856  12.740  0.00  0.00    +0.000 C 
BRANCH  13  19
ATOM     16  C   UNL     1      49.943   7.712  13.280  0.00  0.00    +0.000 A 
ATOM     17  C   UNL     1      49.593   8.404  12.128  0.00  0.00    +0.000 A 
ATOM     18  C   UNL     1      48.257   8.405  11.703  0.00  0.00    +0.000 A 
ATOM     19  C   UNL     1      47.254   7.729  12.422  0.00  0.00    +0.000 A 
ATOM     20  C   UNL     1      47.655   7.021  13.570  0.00  0.00    +0.000 A 
ATOM     21  C   UNL     1      48.985   7.012  14.000  0.00  0.00    +0.000 A 
BRANCH  16  22
ATOM     22  O   UNL     1      51.223   7.699  13.747  0.00  0.00    +0.000 OA
ATOM     23  H   UNL     1      51.247   8.162  14.600  0.00  0.00    +0.000 HD
ENDBRANCH  16  22
ENDBRANCH  13  19
ENDBRANCH   1  13
TORSDOF 4
ENDMDL
MODEL 6
REMARK VINA RESULT:    -6.000      3.754      7.283
REMARK INTER + INTRA:          -7.960
REMARK INTER:                  -7.661
REMARK INTRA:                  -0.299
REMARK UNBOUND:                -0.733
REMARK  Name = 
REMARK  4 active torsions:
REMARK  status: ('A' for Active; 'I' for Inactive)
REMARK    1  A    between atoms: O_1  and  C_2
REMARK    2  A    between atoms: C_5  and  C_6
REMARK    3  A    between atoms: C_6  and  C_7
REMARK    4  A    between atoms: C_11  and  C_12
REMARK                            x       y       z     vdW  Elec       q    Type
REMARK                         _______ _______ _______ _____ _____    ______ ____
ROOT
ATOM      1  C   UNL     1      47.258   7.535  12.367  0.00  0.00    +0.000 A 
ATOM      2  C   UNL     1      46.313   8.554  12.560  0.00  0.00    +0.000 A 
ATOM      3  C   UNL     1      45.025   8.451  12.044  0.00  0.00    +0.000 A 
ATOM      4  C   UNL     1      44.649   7.313  11.327  0.00  0.00    +0.000 A 
ATOM      5  C   UNL     1      45.538   6.240  11.153  0.00  0.00    +0.000 A 
ATOM      6  C   UNL     1      46.820   6.360  11.720  0.00  0.00    +0.000 A 
ENDROOT
BRANCH   5   7
ATOM      7  C   UNL     1      45.177   5.066  10.334  0.00  0.00    +0.000 A 
ATOM      8  C   UNL     1      45.683   4.889   9.037  0.00  0.00    +0.000 A 
ATOM      9  C   UNL     1      45.357   3.754   8.297  0.00  0.00    +0.000 A 
ATOM     10  C   UNL     1      44.534   2.806   8.876  0.00  0.00    +0.000 A 
ATOM     11  N   UNL     1      44.024   2.921  10.118  0.00  0.00    +0.000 NA
ATOM     12  C   UNL     1      44.353   4.044  10.809  0.00  0.00    +0.000 A 
ENDBRANCH   5   7
BRANCH   1  13
ATOM     13  C   UNL     1      48.740   7.761  12.681  0.00  0.00    +0.000 C 
ATOM     14  C   UNL     1      49.720   7.674  11.506  0.00  0.00    +0.000 C 
ATOM     15  C   UNL     1      49.347   9.014  12.035  0.00  0.00    +0.000 C 
BRANCH  13  19
ATOM     16  C   UNL     1      50.302   6.494  16.539  0.00  0.00    +0.000 A 
ATOM     17  C   UNL     1      48.991   6.189  16.197  0.00  0.00    +0.000 A 
ATOM     18  C   UNL     1      48.478   6.630  14.968  0.00  0.00    +0.000 A 
ATOM     19  C   UNL     1      49.263   7.367  14.064  0.00  0.00    +0.000 A 
ATOM     20  C   UNL     1      50.579   7.675  14.459  0.00  0.00    +0.000 A 
ATOM     21  C   UNL     1      51.098   7.242  15.682  0.00  0.00    +0.000 A 
BRANCH  16  22
ATOM     22  O   UNL     1      50.854   6.070  17.709  0.00  0.00    +0.000 OA
ATOM     23  H   UNL     1      51.821   6.106  17.628  0.00  0.00    +0.000 HD
ENDBRANCH  16  22
ENDBRANCH  13  19
ENDBRANCH   1  13
TORSDOF 4
ENDMDL
MODEL 7
REMARK VINA RESULT:    -5.983      3.765      5.853
REMARK INTER + INTRA:          -7.940
REMARK INTER:                  -7.357
REMARK INTRA:                  -0.583
REMARK UNBOUND:                -0.733
REMARK  Name = 
REMARK  4 active torsions:
REMARK  status: ('A' for Active; 'I' for Inactive)
REMARK    1  A    between atoms: O_1  and  C_2
REMARK    2  A    between atoms: C_5  and  C_6
REMARK    3  A    between atoms: C_6  and  C_7
REMARK    4  A    between atoms: C_11  and  C_12
REMARK                            x       y       z     vdW  Elec       q    Type
REMARK                         _______ _______ _______ _____ _____    ______ ____
ROOT
ATOM      1  C   UNL     1      46.395   8.867  12.216  0.00  0.00    +0.000 A 
ATOM      2  C   UNL     1      47.428   9.808  12.083  0.00  0.00    +0.000 A 
ATOM      3  C   UNL     1      47.167  11.112  11.673  0.00  0.00    +0.000 A 
ATOM      4  C   UNL     1      45.858  11.508  11.395  0.00  0.00    +0.000 A 
ATOM      5  C   UNL     1      44.781  10.623  11.566  0.00  0.00    +0.000 A 
ATOM      6  C   UNL     1      45.075   9.323  12.018  0.00  0.00    +0.000 A 
ENDROOT
BRANCH   5   7
ATOM      7  C   UNL     1      43.403  11.007  11.203  0.00  0.00    +0.000 A 
ATOM      8  C   UNL     1      42.976  12.343  11.237  0.00  0.00    +0.000 A 
ATOM      9  C   UNL     1      41.680  12.685  10.855  0.00  0.00    +0.000 A 
ATOM     10  C   UNL     1      40.834  11.677  10.432  0.00  0.00    +0.000 A 
ATOM     11  N   UNL     1      41.190  10.379  10.373  0.00  0.00    +0.000 NA
ATOM     12  C   UNL     1      42.457  10.079  10.763  0.00  0.00    +0.000 A 
ENDBRANCH   5   7
BRANCH   1  13
ATOM     13  C   UNL     1      46.702   7.376  12.387  0.00  0.00    +0.000 C 
ATOM     14  C   UNL     1      48.155   6.937  12.178  0.00  0.00    +0.000 C 
ATOM     15  C   UNL     1      47.627   7.044  13.565  0.00  0.00    +0.000 C 
BRANCH  13  19
ATOM     16  C   UNL     1      43.689   4.361  11.512  0.00  0.00    +0.000 A 
ATOM     17  C   UNL     1      44.570   4.760  10.515  0.00  0.00    +0.000 A 
ATOM     18  C   UNL     1      45.516   5.757  10.788  0.00  0.00    +0.000 A 
ATOM     19  C   UNL     1      45.605   6.362  12.055  0.00  0.00    +0.000 A 
ATOM     20  C   UNL     1      44.679   5.946  13.030  0.00  0.00    +0.000 A 
ATOM     21  C   UNL     1      43.731   4.954  12.767  0.00  0.00    +0.000 A 
BRANCH  16  22
ATOM     22  O   UNL     1      42.767   3.381  11.303  0.00  0.00    +0.000 OA
ATOM     23  H   UNL     1      41.892   3.791  11.217  0.00  0.00    +0.000 HD
ENDBRANCH  16  22
ENDBRANCH  13  19
ENDBRANCH   1  13
TORSDOF 4
ENDMDL
MODEL 8
REMARK VINA RESULT:    -5.845      2.769      4.161
REMARK INTER + INTRA:          -7.773
REMARK INTER:                  -7.181
REMARK INTRA:                  -0.592
REMARK UNBOUND:                -0.733
REMARK  Name = 
REMARK  4 active torsions:
REMARK  status: ('A' for Active; 'I' for Inactive)
REMARK    1  A    between atoms: O_1  and  C_2
REMARK    2  A    between atoms: C_5  and  C_6
REMARK    3  A    between atoms: C_6  and  C_7
REMARK    4  A    between atoms: C_11  and  C_12
REMARK                            x       y       z     vdW  Elec       q    Type
REMARK                         _______ _______ _______ _____ _____    ______ ____
ROOT
ATOM      1  C   UNL     1      47.262   6.821  12.234  0.00  0.00    +0.000 A 
ATOM      2  C   UNL     1      48.181   7.501  11.419  0.00  0.00    +0.000 A 
ATOM      3  C   UNL     1      49.423   7.897  11.907  0.00  0.00    +0.000 A 
ATOM      4  C   UNL     1      49.778   7.610  13.226  0.00  0.00    +0.000 A 
ATOM      5  C   UNL     1      48.920   6.883  14.067  0.00  0.00    +0.000 A 
ATOM      6  C   UNL     1      47.688   6.465  13.531  0.00  0.00    +0.000 A 
ENDROOT
BRANCH   5   7
ATOM      7  C   UNL     1      49.253   6.640  15.484  0.00  0.00    +0.000 A 
ATOM      8  C   UNL     1      50.404   7.184  16.075  0.00  0.00    +0.000 A 
ATOM      9  C   UNL     1      50.678   6.970  17.425  0.00  0.00    +0.000 A 
ATOM     10  C   UNL     1      49.783   6.220  18.165  0.00  0.00    +0.000 A 
ATOM     11  N   UNL     1      48.660   5.678  17.653  0.00  0.00    +0.000 NA
ATOM     12  C   UNL     1      48.429   5.897  16.331  0.00  0.00    +0.000 A 
ENDBRANCH   5   7
BRANCH   1  13
ATOM     13  C   UNL     1      45.805   6.637  11.799  0.00  0.00    +0.000 C 
ATOM     14  C   UNL     1      44.725   7.154  12.754  0.00  0.00    +0.000 C 
ATOM     15  C   UNL     1      45.046   7.944  11.535  0.00  0.00    +0.000 C 
BRANCH  13  19
ATOM     16  C   UNL     1      44.649   3.309   9.246  0.00  0.00    +0.000 A 
ATOM     17  C   UNL     1      44.327   3.280  10.597  0.00  0.00    +0.000 A 
ATOM     18  C   UNL     1      44.732   4.336  11.425  0.00  0.00    +0.000 A 
ATOM     19  C   UNL     1      45.451   5.435  10.920  0.00  0.00    +0.000 A 
ATOM     20  C   UNL     1      45.777   5.413   9.551  0.00  0.00    +0.000 A 
ATOM     21  C   UNL     1      45.380   4.364   8.718  0.00  0.00    +0.000 A 
BRANCH  16  22
ATOM     22  O   UNL     1      44.259   2.319   8.396  0.00  0.00    +0.000 OA
ATOM     23  H   UNL     1      43.633   1.739   8.859  0.00  0.00    +0.000 HD
ENDBRANCH  16  22
ENDBRANCH  13  19
ENDBRANCH   1  13
TORSDOF 4
ENDMDL
MODEL 9
REMARK VINA RESULT:    -5.645      4.208      7.618
REMARK INTER + INTRA:          -7.533
REMARK INTER:                  -6.849
REMARK INTRA:                  -0.684
REMARK UNBOUND:                -0.733
REMARK  Name = 
REMARK  4 active torsions:
REMARK  status: ('A' for Active; 'I' for Inactive)
REMARK    1  A    between atoms: O_1  and  C_2
REMARK    2  A    between atoms: C_5  and  C_6
REMARK    3  A    between atoms: C_6  and  C_7
REMARK    4  A    between atoms: C_11  and  C_12
REMARK                            x       y       z     vdW  Elec       q    Type
REMARK                         _______ _______ _______ _____ _____    ______ ____
ROOT
ATOM      1  C   UNL     1      48.610   7.716  14.165  0.00  0.00    +0.000 A 
ATOM      2  C   UNL     1      49.270   8.348  13.100  0.00  0.00    +0.000 A 
ATOM      3  C   UNL     1      48.935   8.073  11.778  0.00  0.00    +0.000 A 
ATOM      4  C   UNL     1      47.918   7.160  11.491  0.00  0.00    +0.000 A 
ATOM      5  C   UNL     1      47.188   6.542  12.519  0.00  0.00    +0.000 A 
ATOM      6  C   UNL     1      47.527   6.871  13.845  0.00  0.00    +0.000 A 
ENDROOT
BRANCH   5   7
ATOM      7  C   UNL     1      46.163   5.520  12.229  0.00  0.00    +0.000 A 
ATOM      8  C   UNL     1      45.456   5.507  11.017  0.00  0.00    +0.000 A 
ATOM      9  C   UNL     1      44.519   4.510  10.751  0.00  0.00    +0.000 A 
ATOM     10  C   UNL     1      44.314   3.532  11.706  0.00  0.00    +0.000 A 
ATOM     11  N   UNL     1      44.967   3.490  12.884  0.00  0.00    +0.000 NA
ATOM     12  C   UNL     1      45.866   4.483  13.115  0.00  0.00    +0.000 A 
ENDBRANCH   5   7
BRANCH   1  13
ATOM     13  C   UNL     1      49.157   7.796  15.593  0.00  0.00    +0.000 C 
ATOM     14  C   UNL     1      49.852   9.100  15.999  0.00  0.00    +0.000 C 
ATOM     15  C   UNL     1      48.470   8.839  16.484  0.00  0.00    +0.000 C 
BRANCH  13  19
ATOM     16  C   UNL     1      50.470   4.207  17.673  0.00  0.00    +0.000 A 
ATOM     17  C   UNL     1      51.409   5.147  17.270  0.00  0.00    +0.000 A 
ATOM     18  C   UNL     1      50.988   6.286  16.568  0.00  0.00    +0.000 A 
ATOM     19  C   UNL     1      49.632   6.507  16.268  0.00  0.00    +0.000 A 
ATOM     20  C   UNL     1      48.716   5.518  16.673  0.00  0.00    +0.000 A 
ATOM     21  C   UNL     1      49.126   4.380  17.371  0.00  0.00    +0.000 A 
BRANCH  16  22
ATOM     22  O   UNL     1      50.825   3.096  18.376  0.00  0.00    +0.000 OA
ATOM     23  H   UNL     1      51.711   3.234  18.749  0.00  0.00    +0.000 HD
ENDBRANCH  16  22
ENDBRANCH  13  19
ENDBRANCH   1  13
TORSDOF 4
ENDMDL
