MODEL 1
REMARK VINA RESULT:    -6.547      0.000      0.000
REMARK INTER + INTRA:          -9.703
REMARK INTER:                  -8.460
REMARK INTRA:                  -1.243
REMARK UNBOUND:                -1.243
REMARK  Name = 
REMARK  5 active torsions:
REMARK  status: ('A' for Active; 'I' for Inactive)
REMARK    1  A    between atoms: C_2  and  C_18
REMARK    2  A    between atoms: N_3  and  C_4
REMARK    3  A    between atoms: C_4  and  C_5
REMARK    4  A    between atoms: C_8  and  C_9
REMARK    5  A    between atoms: C_9  and  N_10
REMARK                            x       y       z     vdW  Elec       q    Type
REMARK                         _______ _______ _______ _____ _____    ______ ____
ROOT
ATOM      1  O   UNL     1      48.475   8.772  16.305  0.00  0.00    +0.000 OA
ATOM      2  C   UNL     1      48.894   7.647  16.049  0.00  0.00    +0.000 C 
ATOM      3  N   UNL     1      49.307   7.284  14.790  0.00  0.00    +0.000 N 
ATOM      4  H   UNL     1      49.448   6.301  14.583  0.00  0.00    +0.000 HD
ENDROOT
BRANCH   2   5
ATOM      5  C   UNL     1      49.021   6.622  17.093  0.00  0.00    +0.000 A 
ATOM      6  C   UNL     1      49.669   6.907  18.285  0.00  0.00    +0.000 A 
ATOM      7  S   UNL     1      49.719   5.584  19.365  0.00  0.00    +0.000 S 
ATOM      8  C   UNL     1      48.837   4.602  18.296  0.00  0.00    +0.000 A 
ATOM      9  N   UNL     1      48.499   3.327  18.621  0.00  0.00    +0.000 NA
ATOM     10  C   UNL     1      47.793   2.712  17.729  0.00  0.00    +0.000 A 
ATOM     11  N   UNL     1      47.402   3.257  16.536  0.00  0.00    +0.000 N 
ATOM     12  C   UNL     1      47.756   4.520  16.141  0.00  0.00    +0.000 A 
ATOM     13  O   UNL     1      47.449   4.952  15.034  0.00  0.00    +0.000 OA
ATOM     14  C   UNL     1      48.529   5.267  17.116  0.00  0.00    +0.000 A 
ATOM     15  H   UNL     1      46.864   2.720  15.869  0.00  0.00    +0.000 HD
ENDBRANCH   2   5
BRANCH   3  16
ATOM     16  C   UNL     1      49.094   8.149  13.658  0.00  0.00    +0.000 C 
BRANCH  16  17
ATOM     17  C   UNL     1      47.784   7.861  12.967  0.00  0.00    +0.000 A 
ATOM     18  C   UNL     1      47.716   6.859  11.989  0.00  0.00    +0.000 A 
ATOM     19  C   UNL     1      46.499   6.524  11.385  0.00  0.00    +0.000 A 
ATOM     20  C   UNL     1      45.316   7.183  11.737  0.00  0.00    +0.000 A 
ATOM     21  C   UNL     1      45.398   8.241  12.659  0.00  0.00    +0.000 A 
ATOM     22  C   UNL     1      46.619   8.579  13.264  0.00  0.00    +0.000 A 
BRANCH  20  23
ATOM     23  C   UNL     1      44.006   6.813  11.073  0.00  0.00    +0.000 C 
BRANCH  23  24
ATOM     24  N   UNL     1      43.316   5.587  11.473  0.00  0.00    +0.000 NA
ATOM     25  C   UNL     1      43.279   5.276  12.903  0.00  0.00    +0.000 C 
ATOM     26  C   UNL     1      44.429   4.380  13.383  0.00  0.00    +0.000 C 
ATOM     27  O   UNL     1      44.517   3.173  12.616  0.00  0.00    +0.000 OA
ATOM     28  C   UNL     1      44.647   3.437  11.216  0.00  0.00    +0.000 C 
ATOM     29  C   UNL     1      43.551   4.376  10.684  0.00  0.00    +0.000 C 
ENDBRANCH  23  24
ENDBRANCH  20  23
ENDBRANCH  16  17
ENDBRANCH   3  16
TORSDOF 5
ENDMDL
MODEL 2
REMARK VINA RESULT:    -6.506      3.310      4.166
REMARK INTER + INTRA:          -9.650
REMARK INTER:                  -8.693
REMARK INTRA:                  -0.957
REMARK UNBOUND:                -1.243
REMARK  Name = 
REMARK  5 active torsions:
REMARK  status: ('A' for Active; 'I' for Inactive)
REMARK    1  A    between atoms: C_2  and  C_18
REMARK    2  A    between atoms: N_3  and  C_4
REMARK    3  A    between atoms: C_4  and  C_5
REMARK    4  A    between atoms: C_8  and  C_9
REMARK    5  A    between atoms: C_9  and  N_10
REMARK                            x       y       z     vdW  Elec       q    Type
REMARK                         _______ _______ _______ _____ _____    ______ ____
ROOT
ATOM      1  O   UNL     1      51.965   6.092  16.618  0.00  0.00    +0.000 OA
ATOM      2  C   UNL     1      51.616   5.255  17.445  0.00  0.00    +0.000 C 
ATOM      3  N   UNL     1      50.327   5.177  17.914  0.00  0.00    +0.000 N 
ATOM      4  H   UNL     1      50.136   4.613  18.735  0.00  0.00    +0.000 HD
ENDROOT
BRANCH   2   5
ATOM      5  C   UNL     1      52.553   4.249  17.959  0.00  0.00    +0.000 A 
ATOM      6  C   UNL     1      53.701   4.636  18.634  0.00  0.00    +0.000 A 
ATOM      7  S   UNL     1      54.665   3.321  19.145  0.00  0.00    +0.000 S 
ATOM      8  C   UNL     1      53.559   2.192  18.523  0.00  0.00    +0.000 A 
ATOM      9  N   UNL     1      53.765   0.855  18.650  0.00  0.00    +0.000 NA
ATOM     10  C   UNL     1      52.822   0.116  18.165  0.00  0.00    +0.000 A 
ATOM     11  N   UNL     1      51.695   0.595  17.556  0.00  0.00    +0.000 N 
ATOM     12  C   UNL     1      51.462   1.930  17.361  0.00  0.00    +0.000 A 
ATOM     13  O   UNL     1      50.475   2.324  16.745  0.00  0.00    +0.000 OA
ATOM     14  C   UNL     1      52.478   2.810  17.908  0.00  0.00    +0.000 A 
ATOM     15  H   UNL     1      50.998  -0.035  17.180  0.00  0.00    +0.000 HD
ENDBRANCH   2   5
BRANCH   3  16
ATOM     16  C   UNL     1      49.356   6.194  17.600  0.00  0.00    +0.000 C 
BRANCH  16  17
ATOM     17  C   UNL     1      48.587   5.869  16.342  0.00  0.00    +0.000 A 
ATOM     18  C   UNL     1      47.791   4.717  16.289  0.00  0.00    +0.000 A 
ATOM     19  C   UNL     1      47.013   4.431  15.162  0.00  0.00    +0.000 A 
ATOM     20  C   UNL     1      47.010   5.286  14.054  0.00  0.00    +0.000 A 
ATOM     21  C   UNL     1      47.869   6.399  14.076  0.00  0.00    +0.000 A 
ATOM     22  C   UNL     1      48.652   6.685  15.206  0.00  0.00    +0.000 A 
BRANCH  20  23
ATOM     23  C   UNL     1      46.167   4.963  12.839  0.00  0.00    +0.000 C 
BRANCH  23  24
ATOM     24  N   UNL     1      44.978   4.124  12.989  0.00  0.00    +0.000 NA
ATOM     25  C   UNL     1      44.884   2.936  12.140  0.00  0.00    +0.000 C 
ATOM     26  C   UNL     1      44.138   3.163  10.818  0.00  0.00    +0.000 C 
ATOM     27  O   UNL     1      42.836   3.721  11.034  0.00  0.00    +0.000 OA
ATOM     28  C   UNL     1      42.893   4.938  11.786  0.00  0.00    +0.000 C 
ATOM     29  C   UNL     1      43.677   4.787  13.100  0.00  0.00    +0.000 C 
ENDBRANCH  23  24
ENDBRANCH  20  23
ENDBRANCH  16  17
ENDBRANCH   3  16
TORSDOF 5
ENDMDL
MODEL 3
REMARK VINA RESULT:    -6.273      2.888      8.165
REMARK INTER + INTRA:          -9.349
REMARK INTER:                  -8.539
REMARK INTRA:                  -0.809
REMARK UNBOUND:                -1.243
REMARK  Name = 
REMARK  5 active torsions:
REMARK  status: ('A' for Active; 'I' for Inactive)
REMARK    1  A    between atoms: C_2  and  C_18
REMARK    2  A    between atoms: N_3  and  C_4
REMARK    3  A    between atoms: C_4  and  C_5
REMARK    4  A    between atoms: C_8  and  C_9
REMARK    5  A    between atoms: C_9  and  N_10
REMARK                            x       y       z     vdW  Elec       q    Type
REMARK                         _______ _______ _______ _____ _____    ______ ____
ROOT
ATOM      1  O   UNL     1      47.311   3.128  14.098  0.00  0.00    +0.000 OA
ATOM      2  C   UNL     1      46.897   4.188  14.555  0.00  0.00    +0.000 C 
ATOM      3  N   UNL     1      46.874   4.451  15.904  0.00  0.00    +0.000 N 
ATOM      4  H   UNL     1      46.341   5.245  16.241  0.00  0.00    +0.000 HD
ENDROOT
BRANCH   2   5
ATOM      5  C   UNL     1      46.433   5.271  13.678  0.00  0.00    +0.000 A 
ATOM      6  C   UNL     1      47.241   6.369  13.428  0.00  0.00    +0.000 A 
ATOM      7  S   UNL     1      46.522   7.521  12.391  0.00  0.00    +0.000 S 
ATOM      8  C   UNL     1      45.128   6.569  12.204  0.00  0.00    +0.000 A 
ATOM      9  N   UNL     1      44.103   6.964  11.404  0.00  0.00    +0.000 NA
ATOM     10  C   UNL     1      43.125   6.122  11.326  0.00  0.00    +0.000 A 
ATOM     11  N   UNL     1      43.077   4.923  11.984  0.00  0.00    +0.000 N 
ATOM     12  C   UNL     1      44.061   4.501  12.838  0.00  0.00    +0.000 A 
ATOM     13  O   UNL     1      43.953   3.453  13.469  0.00  0.00    +0.000 OA
ATOM     14  C   UNL     1      45.198   5.397  12.945  0.00  0.00    +0.000 A 
ATOM     15  H   UNL     1      42.276   4.312  11.897  0.00  0.00    +0.000 HD
ENDBRANCH   2   5
BRANCH   3  16
ATOM     16  C   UNL     1      47.162   3.421  16.868  0.00  0.00    +0.000 C 
BRANCH  16  17
ATOM     17  C   UNL     1      48.546   3.567  17.454  0.00  0.00    +0.000 A 
ATOM     18  C   UNL     1      49.568   2.698  17.052  0.00  0.00    +0.000 A 
ATOM     19  C   UNL     1      50.876   2.857  17.525  0.00  0.00    +0.000 A 
ATOM     20  C   UNL     1      51.198   3.887  18.416  0.00  0.00    +0.000 A 
ATOM     21  C   UNL     1      50.156   4.708  18.880  0.00  0.00    +0.000 A 
ATOM     22  C   UNL     1      48.843   4.548  18.408  0.00  0.00    +0.000 A 
BRANCH  20  23
ATOM     23  C   UNL     1      52.616   4.046  18.924  0.00  0.00    +0.000 C 
BRANCH  23  24
ATOM     24  N   UNL     1      53.450   5.127  18.402  0.00  0.00    +0.000 NA
ATOM     25  C   UNL     1      53.512   6.363  19.183  0.00  0.00    +0.000 C 
ATOM     26  C   UNL     1      52.478   7.421  18.771  0.00  0.00    +0.000 C 
ATOM     27  O   UNL     1      52.552   7.717  17.371  0.00  0.00    +0.000 OA
ATOM     28  C   UNL     1      52.404   6.542  16.567  0.00  0.00    +0.000 C 
ATOM     29  C   UNL     1      53.378   5.421  16.969  0.00  0.00    +0.000 C 
ENDBRANCH  23  24
ENDBRANCH  20  23
ENDBRANCH  16  17
ENDBRANCH   3  16
TORSDOF 5
ENDMDL
MODEL 4
REMARK VINA RESULT:    -6.110      3.068      7.716
REMARK INTER + INTRA:          -9.139
REMARK INTER:                  -8.311
REMARK INTRA:                  -0.828
REMARK UNBOUND:                -1.243
REMARK  Name = 
REMARK  5 active torsions:
REMARK  status: ('A' for Active; 'I' for Inactive)
REMARK    1  A    between atoms: C_2  and  C_18
REMARK    2  A    between atoms: N_3  and  C_4
REMARK    3  A    between atoms: C_4  and  C_5
REMARK    4  A    between atoms: C_8  and  C_9
REMARK    5  A    between atoms: C_9  and  N_10
REMARK                            x       y       z     vdW  Elec       q    Type
REMARK                         _______ _______ _______ _____ _____    ______ ____
ROOT
ATOM      1  O   UNL     1      47.800   7.127  12.141  0.00  0.00    +0.000 OA
ATOM      2  C   UNL     1      46.952   6.578  12.837  0.00  0.00    +0.000 C 
ATOM      3  N   UNL     1      47.146   6.326  14.174  0.00  0.00    +0.000 N 
ATOM      4  H   UNL     1      46.512   5.695  14.653  0.00  0.00    +0.000 HD
ENDROOT
BRANCH   2   5
ATOM      5  C   UNL     1      45.646   6.190  12.289  0.00  0.00    +0.000 A 
ATOM      6  C   UNL     1      44.830   7.131  11.680  0.00  0.00    +0.000 A 
ATOM      7  S   UNL     1      43.353   6.487  11.115  0.00  0.00    +0.000 S 
ATOM      8  C   UNL     1      43.773   4.921  11.622  0.00  0.00    +0.000 A 
ATOM      9  N   UNL     1      42.947   3.863  11.413  0.00  0.00    +0.000 NA
ATOM     10  C   UNL     1      43.414   2.727  11.815  0.00  0.00    +0.000 A 
ATOM     11  N   UNL     1      44.631   2.556  12.417  0.00  0.00    +0.000 N 
ATOM     12  C   UNL     1      45.479   3.595  12.693  0.00  0.00    +0.000 A 
ATOM     13  O   UNL     1      46.532   3.417  13.300  0.00  0.00    +0.000 OA
ATOM     14  C   UNL     1      45.016   4.894  12.240  0.00  0.00    +0.000 A 
ATOM     15  H   UNL     1      44.936   1.643  12.727  0.00  0.00    +0.000 HD
ENDBRANCH   2   5
BRANCH   3  16
ATOM     16  C   UNL     1      48.433   6.524  14.790  0.00  0.00    +0.000 C 
BRANCH  16  17
ATOM     17  C   UNL     1      48.535   5.818  16.121  0.00  0.00    +0.000 A 
ATOM     18  C   UNL     1      49.618   6.085  16.970  0.00  0.00    +0.000 A 
ATOM     19  C   UNL     1      49.699   5.499  18.238  0.00  0.00    +0.000 A 
ATOM     20  C   UNL     1      48.703   4.627  18.693  0.00  0.00    +0.000 A 
ATOM     21  C   UNL     1      47.659   4.299  17.810  0.00  0.00    +0.000 A 
ATOM     22  C   UNL     1      47.578   4.884  16.536  0.00  0.00    +0.000 A 
BRANCH  20  23
ATOM     23  C   UNL     1      48.805   3.997  20.066  0.00  0.00    +0.000 C 
BRANCH  23  24
ATOM     24  N   UNL     1      48.550   4.811  21.253  0.00  0.00    +0.000 NA
ATOM     25  C   UNL     1      47.356   5.657  21.241  0.00  0.00    +0.000 C 
ATOM     26  C   UNL     1      47.600   7.085  20.732  0.00  0.00    +0.000 C 
ATOM     27  O   UNL     1      48.656   7.731  21.452  0.00  0.00    +0.000 OA
ATOM     28  C   UNL     1      49.872   6.976  21.411  0.00  0.00    +0.000 C 
ATOM     29  C   UNL     1      49.681   5.517  21.859  0.00  0.00    +0.000 C 
ENDBRANCH  23  24
ENDBRANCH  20  23
ENDBRANCH  16  17
ENDBRANCH   3  16
TORSDOF 5
ENDMDL
MODEL 5
REMARK VINA RESULT:    -6.078      2.890      7.628
REMARK INTER + INTRA:          -9.097
REMARK INTER:                  -8.169
REMARK INTRA:                  -0.928
REMARK UNBOUND:                -1.243
REMARK  Name = 
REMARK  5 active torsions:
REMARK  status: ('A' for Active; 'I' for Inactive)
REMARK    1  A    between atoms: C_2  and  C_18
REMARK    2  A    between atoms: N_3  and  C_4
REMARK    3  A    between atoms: C_4  and  C_5
REMARK    4  A    between atoms: C_8  and  C_9
REMARK    5  A    between atoms: C_9  and  N_10
REMARK                            x       y       z     vdW  Elec       q    Type
REMARK                         _______ _______ _______ _____ _____    ______ ____
ROOT
ATOM      1  O   UNL     1      48.418   5.668  14.188  0.00  0.00    +0.000 OA
ATOM      2  C   UNL     1      47.245   5.311  14.241  0.00  0.00    +0.000 C 
ATOM      3  N   UNL     1      46.771   4.479  15.226  0.00  0.00    +0.000 N 
ATOM      4  H   UNL     1      45.858   4.053  15.113  0.00  0.00    +0.000 HD
ENDROOT
BRANCH   2   5
ATOM      5  C   UNL     1      46.256   5.791  13.268  0.00  0.00    +0.000 A 
ATOM      6  C   UNL     1      46.101   7.148  13.031  0.00  0.00    +0.000 A 
ATOM      7  S   UNL     1      44.897   7.504  11.873  0.00  0.00    +0.000 S 
ATOM      8  C   UNL     1      44.575   5.856  11.615  0.00  0.00    +0.000 A 
ATOM      9  N   UNL     1      43.650   5.450  10.707  0.00  0.00    +0.000 NA
ATOM     10  C   UNL     1      43.539   4.167  10.588  0.00  0.00    +0.000 A 
ATOM     11  N   UNL     1      44.266   3.255  11.303  0.00  0.00    +0.000 N 
ATOM     12  C   UNL     1      45.174   3.612  12.263  0.00  0.00    +0.000 A 
ATOM     13  O   UNL     1      45.757   2.767  12.938  0.00  0.00    +0.000 OA
ATOM     14  C   UNL     1      45.358   5.043  12.422  0.00  0.00    +0.000 A 
ATOM     15  H   UNL     1      44.123   2.261  11.178  0.00  0.00    +0.000 HD
ENDBRANCH   2   5
BRANCH   3  16
ATOM     16  C   UNL     1      47.668   3.827  16.146  0.00  0.00    +0.000 C 
BRANCH  16  17
ATOM     17  C   UNL     1      48.002   4.707  17.326  0.00  0.00    +0.000 A 
ATOM     18  C   UNL     1      49.337   5.037  17.595  0.00  0.00    +0.000 A 
ATOM     19  C   UNL     1      49.668   5.908  18.639  0.00  0.00    +0.000 A 
ATOM     20  C   UNL     1      48.674   6.471  19.447  0.00  0.00    +0.000 A 
ATOM     21  C   UNL     1      47.342   6.078  19.227  0.00  0.00    +0.000 A 
ATOM     22  C   UNL     1      47.010   5.203  18.181  0.00  0.00    +0.000 A 
BRANCH  20  23
ATOM     23  C   UNL     1      49.045   7.410  20.576  0.00  0.00    +0.000 C 
BRANCH  23  24
ATOM     24  N   UNL     1      49.073   8.851  20.335  0.00  0.00    +0.000 NA
ATOM     25  C   UNL     1      47.926   9.631  20.801  0.00  0.00    +0.000 C 
ATOM     26  C   UNL     1      46.823   9.820  19.749  0.00  0.00    +0.000 C 
ATOM     27  O   UNL     1      47.340  10.378  18.535  0.00  0.00    +0.000 OA
ATOM     28  C   UNL     1      48.408   9.592  17.996  0.00  0.00    +0.000 C 
ATOM     29  C   UNL     1      49.521   9.321  19.022  0.00  0.00    +0.000 C 
ENDBRANCH  23  24
ENDBRANCH  20  23
ENDBRANCH  16  17
ENDBRANCH   3  16
TORSDOF 5
ENDMDL
MODEL 6
REMARK VINA RESULT:    -6.005      3.073      7.230
REMARK INTER + INTRA:          -9.003
REMARK INTER:                  -8.018
REMARK INTRA:                  -0.985
REMARK UNBOUND:                -1.243
REMARK  Name = 
REMARK  5 active torsions:
REMARK  status: ('A' for Active; 'I' for Inactive)
REMARK    1  A    between atoms: C_2  and  C_18
REMARK    2  A    between atoms: N_3  and  C_4
REMARK    3  A    between atoms: C_4  and  C_5
REMARK    4  A    between atoms: C_8  and  C_9
REMARK    5  A    between atoms: C_9  and  N_10
REMARK                            x       y       z     vdW  Elec       q    Type
REMARK                         _______ _______ _______ _____ _____    ______ ____
ROOT
ATOM      1  O   UNL     1      44.836   7.406  12.502  0.00  0.00    +0.000 OA
ATOM      2  C   UNL     1      45.528   6.460  12.138  0.00  0.00    +0.000 C 
ATOM      3  N   UNL     1      46.897   6.538  12.055  0.00  0.00    +0.000 N 
ATOM      4  H   UNL     1      47.402   5.810  11.560  0.00  0.00    +0.000 HD
ENDROOT
BRANCH   2   5
ATOM      5  C   UNL     1      44.933   5.159  11.806  0.00  0.00    +0.000 A 
ATOM      6  C   UNL     1      44.195   4.461  12.748  0.00  0.00    +0.000 A 
ATOM      7  S   UNL     1      43.594   2.969  12.173  0.00  0.00    +0.000 S 
ATOM      8  C   UNL     1      44.260   3.228  10.632  0.00  0.00    +0.000 A 
ATOM      9  N   UNL     1      44.090   2.329   9.627  0.00  0.00    +0.000 NA
ATOM     10  C   UNL     1      44.618   2.676   8.499  0.00  0.00    +0.000 A 
ATOM     11  N   UNL     1      45.308   3.838   8.289  0.00  0.00    +0.000 N 
ATOM     12  C   UNL     1      45.548   4.753   9.279  0.00  0.00    +0.000 A 
ATOM     13  O   UNL     1      46.233   5.751   9.075  0.00  0.00    +0.000 OA
ATOM     14  C   UNL     1      44.956   4.427  10.564  0.00  0.00    +0.000 A 
ATOM     15  H   UNL     1      45.714   4.048   7.386  0.00  0.00    +0.000 HD
ENDBRANCH   2   5
BRANCH   3  16
ATOM     16  C   UNL     1      47.583   7.795  12.211  0.00  0.00    +0.000 C 
BRANCH  16  17
ATOM     17  C   UNL     1      48.235   7.917  13.567  0.00  0.00    +0.000 A 
ATOM     18  C   UNL     1      47.796   8.897  14.467  0.00  0.00    +0.000 A 
ATOM     19  C   UNL     1      48.335   8.985  15.755  0.00  0.00    +0.000 A 
ATOM     20  C   UNL     1      49.330   8.098  16.181  0.00  0.00    +0.000 A 
ATOM     21  C   UNL     1      49.825   7.166  15.251  0.00  0.00    +0.000 A 
ATOM     22  C   UNL     1      49.287   7.079  13.958  0.00  0.00    +0.000 A 
BRANCH  20  23
ATOM     23  C   UNL     1      49.907   8.206  17.576  0.00  0.00    +0.000 C 
BRANCH  23  24
ATOM     24  N   UNL     1      49.510   7.237  18.597  0.00  0.00    +0.000 NA
ATOM     25  C   UNL     1      50.465   6.178  18.924  0.00  0.00    +0.000 C 
ATOM     26  C   UNL     1      50.278   4.887  18.113  0.00  0.00    +0.000 C 
ATOM     27  O   UNL     1      48.938   4.391  18.209  0.00  0.00    +0.000 OA
ATOM     28  C   UNL     1      47.974   5.371  17.809  0.00  0.00    +0.000 C 
ATOM     29  C   UNL     1      48.145   6.708  18.549  0.00  0.00    +0.000 C 
ENDBRANCH  23  24
ENDBRANCH  20  23
ENDBRANCH  16  17
ENDBRANCH   3  16
TORSDOF 5
ENDMDL
MODEL 7
REMARK VINA RESULT:    -5.970      4.710      7.958
REMARK INTER + INTRA:          -8.957
REMARK INTER:                  -8.136
REMARK INTRA:                  -0.822
REMARK UNBOUND:                -1.243
REMARK  Name = 
REMARK  5 active torsions:
REMARK  status: ('A' for Active; 'I' for Inactive)
REMARK    1  A    between atoms: C_2  and  C_18
REMARK    2  A    between atoms: N_3  and  C_4
REMARK    3  A    between atoms: C_4  and  C_5
REMARK    4  A    between atoms: C_8  and  C_9
REMARK    5  A    between atoms: C_9  and  N_10
REMARK                            x       y       z     vdW  Elec       q    Type
REMARK                         _______ _______ _______ _____ _____    ______ ____
ROOT
ATOM      1  O   UNL     1      43.753   7.452  11.258  0.00  0.00    +0.000 OA
ATOM      2  C   UNL     1      44.486   6.583  11.719  0.00  0.00    +0.000 C 
ATOM      3  N   UNL     1      45.530   6.870  12.565  0.00  0.00    +0.000 N 
ATOM      4  H   UNL     1      46.223   6.154  12.753  0.00  0.00    +0.000 HD
ENDROOT
BRANCH   2   5
ATOM      5  C   UNL     1      44.265   5.161  11.424  0.00  0.00    +0.000 A 
ATOM      6  C   UNL     1      43.470   4.385  12.254  0.00  0.00    +0.000 A 
ATOM      7  S   UNL     1      43.343   2.758  11.748  0.00  0.00    +0.000 S 
ATOM      8  C   UNL     1      44.306   3.048  10.379  0.00  0.00    +0.000 A 
ATOM      9  N   UNL     1      44.575   2.063   9.481  0.00  0.00    +0.000 NA
ATOM     10  C   UNL     1      45.286   2.437   8.469  0.00  0.00    +0.000 A 
ATOM     11  N   UNL     1      45.760   3.706   8.278  0.00  0.00    +0.000 N 
ATOM     12  C   UNL     1      45.558   4.721   9.174  0.00  0.00    +0.000 A 
ATOM     13  O   UNL     1      46.059   5.830   9.009  0.00  0.00    +0.000 OA
ATOM     14  C   UNL     1      44.743   4.365  10.321  0.00  0.00    +0.000 A 
ATOM     15  H   UNL     1      46.327   3.935   7.472  0.00  0.00    +0.000 HD
ENDBRANCH   2   5
BRANCH   3  16
ATOM     16  C   UNL     1      45.937   8.230  12.810  0.00  0.00    +0.000 C 
BRANCH  16  17
ATOM     17  C   UNL     1      47.327   8.504  12.290  0.00  0.00    +0.000 A 
ATOM     18  C   UNL     1      47.797   9.822  12.216  0.00  0.00    +0.000 A 
ATOM     19  C   UNL     1      49.106  10.098  11.805  0.00  0.00    +0.000 A 
ATOM     20  C   UNL     1      49.981   9.066  11.452  0.00  0.00    +0.000 A 
ATOM     21  C   UNL     1      49.485   7.750  11.449  0.00  0.00    +0.000 A 
ATOM     22  C   UNL     1      48.171   7.473  11.860  0.00  0.00    +0.000 A 
BRANCH  20  23
ATOM     23  C   UNL     1      51.394   9.378  11.005  0.00  0.00    +0.000 C 
BRANCH  23  24
ATOM     24  N   UNL     1      52.373   8.297  10.906  0.00  0.00    +0.000 NA
ATOM     25  C   UNL     1      53.550   8.377  11.771  0.00  0.00    +0.000 C 
ATOM     26  C   UNL     1      54.759   9.072  11.129  0.00  0.00    +0.000 C 
ATOM     27  O   UNL     1      55.108   8.474   9.875  0.00  0.00    +0.000 OA
ATOM     28  C   UNL     1      54.005   8.459   8.963  0.00  0.00    +0.000 C 
ATOM     29  C   UNL     1      52.743   7.823   9.570  0.00  0.00    +0.000 C 
ENDBRANCH  23  24
ENDBRANCH  20  23
ENDBRANCH  16  17
ENDBRANCH   3  16
TORSDOF 5
ENDMDL
MODEL 8
REMARK VINA RESULT:    -5.961      3.292      8.145
REMARK INTER + INTRA:          -8.946
REMARK INTER:                  -8.083
REMARK INTRA:                  -0.863
REMARK UNBOUND:                -1.243
REMARK  Name = 
REMARK  5 active torsions:
REMARK  status: ('A' for Active; 'I' for Inactive)
REMARK    1  A    between atoms: C_2  and  C_18
REMARK    2  A    between atoms: N_3  and  C_4
REMARK    3  A    between atoms: C_4  and  C_5
REMARK    4  A    between atoms: C_8  and  C_9
REMARK    5  A    between atoms: C_9  and  N_10
REMARK                            x       y       z     vdW  Elec       q    Type
REMARK                         _______ _______ _______ _____ _____    ______ ____
ROOT
ATOM      1  O   UNL     1      48.517   6.092  13.843  0.00  0.00    +0.000 OA
ATOM      2  C   UNL     1      47.383   5.671  14.050  0.00  0.00    +0.000 C 
ATOM      3  N   UNL     1      47.039   5.020  15.209  0.00  0.00    +0.000 N 
ATOM      4  H   UNL     1      46.159   4.516  15.248  0.00  0.00    +0.000 HD
ENDROOT
BRANCH   2   5
ATOM      5  C   UNL     1      46.302   5.876  13.077  0.00  0.00    +0.000 A 
ATOM      6  C   UNL     1      45.956   7.154  12.668  0.00  0.00    +0.000 A 
ATOM      7  S   UNL     1      44.673   7.184  11.541  0.00  0.00    +0.000 S 
ATOM      8  C   UNL     1      44.568   5.489  11.527  0.00  0.00    +0.000 A 
ATOM      9  N   UNL     1      43.674   4.841  10.735  0.00  0.00    +0.000 NA
ATOM     10  C   UNL     1      43.734   3.552  10.797  0.00  0.00    +0.000 A 
ATOM     11  N   UNL     1      44.603   2.851  11.589  0.00  0.00    +0.000 N 
ATOM     12  C   UNL     1      45.490   3.455  12.439  0.00  0.00    +0.000 A 
ATOM     13  O   UNL     1      46.206   2.797  13.189  0.00  0.00    +0.000 OA
ATOM     14  C   UNL     1      45.484   4.906  12.392  0.00  0.00    +0.000 A 
ATOM     15  H   UNL     1      44.592   1.840  11.607  0.00  0.00    +0.000 HD
ENDBRANCH   2   5
BRANCH   3  16
ATOM     16  C   UNL     1      48.039   4.629  16.170  0.00  0.00    +0.000 C 
BRANCH  16  17
ATOM     17  C   UNL     1      47.999   5.493  17.407  0.00  0.00    +0.000 A 
ATOM     18  C   UNL     1      48.844   6.607  17.507  0.00  0.00    +0.000 A 
ATOM     19  C   UNL     1      48.777   7.464  18.611  0.00  0.00    +0.000 A 
ATOM     20  C   UNL     1      47.867   7.232  19.649  0.00  0.00    +0.000 A 
ATOM     21  C   UNL     1      47.076   6.071  19.586  0.00  0.00    +0.000 A 
ATOM     22  C   UNL     1      47.145   5.209  18.480  0.00  0.00    +0.000 A 
BRANCH  20  23
ATOM     23  C   UNL     1      47.807   8.165  20.839  0.00  0.00    +0.000 C 
BRANCH  23  24
ATOM     24  N   UNL     1      48.765   8.001  21.932  0.00  0.00    +0.000 NA
ATOM     25  C   UNL     1      49.905   8.919  21.967  0.00  0.00    +0.000 C 
ATOM     26  C   UNL     1      51.156   8.398  21.245  0.00  0.00    +0.000 C 
ATOM     27  O   UNL     1      51.546   7.107  21.728  0.00  0.00    +0.000 OA
ATOM     28  C   UNL     1      50.483   6.153  21.625  0.00  0.00    +0.000 C 
ATOM     29  C   UNL     1      49.182   6.642  22.284  0.00  0.00    +0.000 C 
ENDBRANCH  23  24
ENDBRANCH  20  23
ENDBRANCH  16  17
ENDBRANCH   3  16
TORSDOF 5
ENDMDL
MODEL 9
REMARK VINA RESULT:    -5.545      3.041      8.061
REMARK INTER + INTRA:          -8.409
REMARK INTER:                  -7.516
REMARK INTRA:                  -0.893
REMARK UNBOUND:                -1.243
REMARK  Name = 
REMARK  5 active torsions:
REMARK  status: ('A' for Active; 'I' for Inactive)
REMARK    1  A    between atoms: C_2  and  C_18
REMARK    2  A    between atoms: N_3  and  C_4
REMARK    3  A    between atoms: C_4  and  C_5
REMARK    4  A    between atoms: C_8  and  C_9
REMARK    5  A    between atoms: C_9  and  N_10
REMARK                            x       y       z     vdW  Elec       q    Type
REMARK                         _______ _______ _______ _____ _____    ______ ____
ROOT
ATOM      1  O   UNL     1      47.358   3.280  13.552  0.00  0.00    +0.000 OA
ATOM      2  C   UNL     1      46.692   4.188  14.042  0.00  0.00    +0.000 C 
ATOM      3  N   UNL     1      46.746   4.504  15.378  0.00  0.00    +0.000 N 
ATOM      4  H   UNL     1      46.037   5.115  15.768  0.00  0.00    +0.000 HD
ENDROOT
BRANCH   2   5
ATOM      5  C   UNL     1      45.818   5.028  13.213  0.00  0.00    +0.000 A 
ATOM      6  C   UNL     1      44.682   4.496  12.623  0.00  0.00    +0.000 A 
ATOM      7  S   UNL     1      43.803   5.628  11.694  0.00  0.00    +0.000 S 
ATOM      8  C   UNL     1      44.885   6.878  12.087  0.00  0.00    +0.000 A 
ATOM      9  N   UNL     1      44.698   8.145  11.633  0.00  0.00    +0.000 NA
ATOM     10  C   UNL     1      45.576   9.000  12.044  0.00  0.00    +0.000 A 
ATOM     11  N   UNL     1      46.631   8.698  12.862  0.00  0.00    +0.000 N 
ATOM     12  C   UNL     1      46.890   7.430  13.308  0.00  0.00    +0.000 A 
ATOM     13  O   UNL     1      47.886   7.181  13.981  0.00  0.00    +0.000 OA
ATOM     14  C   UNL     1      45.920   6.431  12.897  0.00  0.00    +0.000 A 
ATOM     15  H   UNL     1      47.297   9.408  13.137  0.00  0.00    +0.000 HD
ENDBRANCH   2   5
BRANCH   3  16
ATOM     16  C   UNL     1      47.449   3.665  16.314  0.00  0.00    +0.000 C 
BRANCH  16  17
ATOM     17  C   UNL     1      47.931   4.441  17.515  0.00  0.00    +0.000 A 
ATOM     18  C   UNL     1      47.028   5.218  18.252  0.00  0.00    +0.000 A 
ATOM     19  C   UNL     1      47.434   5.890  19.410  0.00  0.00    +0.000 A 
ATOM     20  C   UNL     1      48.756   5.809  19.863  0.00  0.00    +0.000 A 
ATOM     21  C   UNL     1      49.679   5.094  19.080  0.00  0.00    +0.000 A 
ATOM     22  C   UNL     1      49.273   4.421  17.917  0.00  0.00    +0.000 A 
BRANCH  20  23
ATOM     23  C   UNL     1      49.184   6.544  21.116  0.00  0.00    +0.000 C 
BRANCH  23  24
ATOM     24  N   UNL     1      49.416   7.986  21.061  0.00  0.00    +0.000 NA
ATOM     25  C   UNL     1      48.341   8.857  21.537  0.00  0.00    +0.000 C 
ATOM     26  C   UNL     1      47.369   9.316  20.441  0.00  0.00    +0.000 C 
ATOM     27  O   UNL     1      48.058   9.934  19.347  0.00  0.00    +0.000 OA
ATOM     28  C   UNL     1      49.060   9.075  18.792  0.00  0.00    +0.000 C 
ATOM     29  C   UNL     1      50.035   8.537  19.853  0.00  0.00    +0.000 C 
ENDBRANCH  23  24
ENDBRANCH  20  23
ENDBRANCH  16  17
ENDBRANCH   3  16
TORSDOF 5
ENDMDL
