MODEL 1
REMARK VINA RESULT:    -8.394      0.000      0.000
REMARK INTER + INTRA:         -12.610
REMARK INTER:                 -11.830
REMARK INTRA:                  -0.781
REMARK UNBOUND:                -0.781
REMARK  Name = 
REMARK  7 active torsions:
REMARK  status: ('A' for Active; 'I' for Inactive)
REMARK    1  A    between atoms: C_2  and  C_11
REMARK    2  A    between atoms: N_3  and  C_4
REMARK    3  A    between atoms: C_4  and  C_5
REMARK    4  A    between atoms: C_14  and  C_15
REMARK    5  A    between atoms: C_15  and  N_16
REMARK    6  A    between atoms: N_16  and  C_17
REMARK    7  A    between atoms: C_17  and  C_18
REMARK                            x       y       z     vdW  Elec       q    Type
REMARK                         _______ _______ _______ _____ _____    ______ ____
ROOT
ATOM      1  C   UNL     1      46.689   5.582  13.243  0.00  0.00    +0.000 A 
ATOM      2  C   UNL     1      45.672   4.676  13.553  0.00  0.00    +0.000 A 
ATOM      3  C   UNL     1      44.627   4.449  12.643  0.00  0.00    +0.000 A 
ATOM      4  C   UNL     1      44.588   5.122  11.412  0.00  0.00    +0.000 A 
ATOM      5  C   UNL     1      45.622   6.017  11.103  0.00  0.00    +0.000 A 
ATOM      6  C   UNL     1      46.668   6.239  12.004  0.00  0.00    +0.000 A 
ENDROOT
BRANCH   1   8
ATOM      7  O   UNL     1      48.845   6.307  13.902  0.00  0.00    +0.000 OA
ATOM      8  C   UNL     1      47.774   5.823  14.249  0.00  0.00    +0.000 C 
ATOM      9  N   UNL     1      47.485   5.430  15.540  0.00  0.00    +0.000 N 
ATOM     10  H   UNL     1      46.595   4.999  15.728  0.00  0.00    +0.000 HD
BRANCH   9  11
ATOM     11  C   UNL     1      48.405   5.579  16.660  0.00  0.00    +0.000 C 
BRANCH  11  12
ATOM     12  C   UNL     1      48.074   4.600  17.808  0.00  0.00    +0.000 C 
ATOM     13  C   UNL     1      49.208   4.468  18.840  0.00  0.00    +0.000 C 
ATOM     14  C   UNL     1      50.430   3.784  18.229  0.00  0.00    +0.000 C 
ATOM     15  N   UNL     1      50.097   2.436  17.769  0.00  0.00    +0.000 NA
ATOM     16  C   UNL     1      49.004   2.442  16.794  0.00  0.00    +0.000 C 
ATOM     17  C   UNL     1      47.758   3.185  17.290  0.00  0.00    +0.000 C 
ATOM     18  H   UNL     1      49.819   1.874  18.574  0.00  0.00    +0.000 HD
ENDBRANCH  11  12
ENDBRANCH   9  11
ENDBRANCH   1   8
BRANCH   4  19
ATOM     19  C   UNL     1      43.474   4.857  10.419  0.00  0.00    +0.000 C 
BRANCH  19  20
ATOM     20  N   UNL     1      43.993   4.280   9.181  0.00  0.00    +0.000 NA
ATOM     21  H   UNL     1      44.764   4.859   8.848  0.00  0.00    +0.000 HD
BRANCH  20  22
ATOM     22  C   UNL     1      44.513   2.923   9.400  0.00  0.00    +0.000 C 
BRANCH  22  23
ATOM     23  C   UNL     1      45.566   2.543   8.374  0.00  0.00    +0.000 A 
ATOM     24  C   UNL     1      46.024   3.483   7.449  0.00  0.00    +0.000 A 
ATOM     25  C   UNL     1      47.003   3.109   6.533  0.00  0.00    +0.000 A 
ATOM     26  C   UNL     1      47.493   1.810   6.554  0.00  0.00    +0.000 A 
ATOM     27  C   UNL     1      46.982   0.935   7.498  0.00  0.00    +0.000 A 
ATOM     28  N   UNL     1      46.037   1.269   8.406  0.00  0.00    +0.000 NA
ENDBRANCH  22  23
ENDBRANCH  20  22
ENDBRANCH  19  20
ENDBRANCH   4  19
TORSDOF 7
ENDMDL
MODEL 2
REMARK VINA RESULT:    -8.146      0.710      1.638
REMARK INTER + INTRA:         -12.261
REMARK INTER:                 -11.511
REMARK INTRA:                  -0.749
REMARK UNBOUND:                -0.781
REMARK  Name = 
REMARK  7 active torsions:
REMARK  status: ('A' for Active; 'I' for Inactive)
REMARK    1  A    between atoms: C_2  and  C_11
REMARK    2  A    between atoms: N_3  and  C_4
REMARK    3  A    between atoms: C_4  and  C_5
REMARK    4  A    between atoms: C_14  and  C_15
REMARK    5  A    between atoms: C_15  and  N_16
REMARK    6  A    between atoms: N_16  and  C_17
REMARK    7  A    between atoms: C_17  and  C_18
REMARK                            x       y       z     vdW  Elec       q    Type
REMARK                         _______ _______ _______ _____ _____    ______ ____
ROOT
ATOM      1  C   UNL     1      46.827   5.707  13.438  0.00  0.00    +0.000 A 
ATOM      2  C   UNL     1      46.705   6.487  12.286  0.00  0.00    +0.000 A 
ATOM      3  C   UNL     1      45.685   6.222  11.359  0.00  0.00    +0.000 A 
ATOM      4  C   UNL     1      44.772   5.178  11.575  0.00  0.00    +0.000 A 
ATOM      5  C   UNL     1      44.892   4.411  12.742  0.00  0.00    +0.000 A 
ATOM      6  C   UNL     1      45.903   4.678  13.671  0.00  0.00    +0.000 A 
ENDROOT
BRANCH   1   8
ATOM      7  O   UNL     1      49.007   6.455  13.985  0.00  0.00    +0.000 OA
ATOM      8  C   UNL     1      47.945   5.998  14.393  0.00  0.00    +0.000 C 
ATOM      9  N   UNL     1      47.698   5.681  15.713  0.00  0.00    +0.000 N 
ATOM     10  H   UNL     1      46.812   5.268  15.955  0.00  0.00    +0.000 HD
BRANCH   9  11
ATOM     11  C   UNL     1      48.654   5.887  16.793  0.00  0.00    +0.000 C 
BRANCH  11  12
ATOM     12  C   UNL     1      49.501   4.624  17.057  0.00  0.00    +0.000 C 
ATOM     13  C   UNL     1      48.704   3.315  16.916  0.00  0.00    +0.000 C 
ATOM     14  C   UNL     1      47.656   3.189  18.020  0.00  0.00    +0.000 C 
ATOM     15  N   UNL     1      48.287   3.175  19.339  0.00  0.00    +0.000 NA
ATOM     16  C   UNL     1      49.098   4.372  19.572  0.00  0.00    +0.000 C 
ATOM     17  C   UNL     1      50.127   4.628  18.464  0.00  0.00    +0.000 C 
ATOM     18  H   UNL     1      48.886   2.351  19.408  0.00  0.00    +0.000 HD
ENDBRANCH  11  12
ENDBRANCH   9  11
ENDBRANCH   1   8
BRANCH   4  19
ATOM     19  C   UNL     1      43.655   4.909  10.586  0.00  0.00    +0.000 C 
BRANCH  19  20
ATOM     20  N   UNL     1      44.181   4.412   9.316  0.00  0.00    +0.000 NA
ATOM     21  H   UNL     1      45.065   4.881   9.120  0.00  0.00    +0.000 HD
BRANCH  20  22
ATOM     22  C   UNL     1      44.442   2.967   9.374  0.00  0.00    +0.000 C 
BRANCH  22  23
ATOM     23  C   UNL     1      45.533   2.544   8.406  0.00  0.00    +0.000 A 
ATOM     24  C   UNL     1      46.065   3.461   7.498  0.00  0.00    +0.000 A 
ATOM     25  C   UNL     1      47.076   3.048   6.635  0.00  0.00    +0.000 A 
ATOM     26  C   UNL     1      47.524   1.734   6.690  0.00  0.00    +0.000 A 
ATOM     27  C   UNL     1      46.939   0.885   7.615  0.00  0.00    +0.000 A 
ATOM     28  N   UNL     1      45.961   1.257   8.472  0.00  0.00    +0.000 NA
ENDBRANCH  22  23
ENDBRANCH  20  22
ENDBRANCH  19  20
ENDBRANCH   4  19
TORSDOF 7
ENDMDL
MODEL 3
REMARK VINA RESULT:    -7.294      2.593      3.273
REMARK INTER + INTRA:         -11.059
REMARK INTER:                 -10.293
REMARK INTRA:                  -0.766
REMARK UNBOUND:                -0.781
REMARK  Name = 
REMARK  7 active torsions:
REMARK  status: ('A' for Active; 'I' for Inactive)
REMARK    1  A    between atoms: C_2  and  C_11
REMARK    2  A    between atoms: N_3  and  C_4
REMARK    3  A    between atoms: C_4  and  C_5
REMARK    4  A    between atoms: C_14  and  C_15
REMARK    5  A    between atoms: C_15  and  N_16
REMARK    6  A    between atoms: N_16  and  C_17
REMARK    7  A    between atoms: C_17  and  C_18
REMARK                            x       y       z     vdW  Elec       q    Type
REMARK                         _______ _______ _______ _____ _____    ______ ____
ROOT
ATOM      1  C   UNL     1      46.921   5.992  12.803  0.00  0.00    +0.000 A 
ATOM      2  C   UNL     1      46.272   4.919  13.417  0.00  0.00    +0.000 A 
ATOM      3  C   UNL     1      45.152   4.329  12.810  0.00  0.00    +0.000 A 
ATOM      4  C   UNL     1      44.670   4.802  11.580  0.00  0.00    +0.000 A 
ATOM      5  C   UNL     1      45.337   5.869  10.962  0.00  0.00    +0.000 A 
ATOM      6  C   UNL     1      46.458   6.453  11.561  0.00  0.00    +0.000 A 
ENDROOT
BRANCH   1   8
ATOM      7  O   UNL     1      49.233   6.423  13.080  0.00  0.00    +0.000 OA
ATOM      8  C   UNL     1      48.095   6.617  13.492  0.00  0.00    +0.000 C 
ATOM      9  N   UNL     1      47.798   7.370  14.609  0.00  0.00    +0.000 N 
ATOM     10  H   UNL     1      46.837   7.442  14.904  0.00  0.00    +0.000 HD
BRANCH   9  11
ATOM     11  C   UNL     1      48.796   8.059  15.417  0.00  0.00    +0.000 C 
BRANCH  11  12
ATOM     12  C   UNL     1      48.178   9.218  16.227  0.00  0.00    +0.000 C 
ATOM     13  C   UNL     1      48.981  10.527  16.125  0.00  0.00    +0.000 C 
ATOM     14  C   UNL     1      50.339  10.394  16.813  0.00  0.00    +0.000 C 
ATOM     15  N   UNL     1      50.176  10.091  18.234  0.00  0.00    +0.000 NA
ATOM     16  C   UNL     1      49.399   8.868  18.449  0.00  0.00    +0.000 C 
ATOM     17  C   UNL     1      48.048   8.876  17.723  0.00  0.00    +0.000 C 
ATOM     18  H   UNL     1      49.696  10.871  18.684  0.00  0.00    +0.000 HD
ENDBRANCH  11  12
ENDBRANCH   9  11
ENDBRANCH   1   8
BRANCH   4  19
ATOM     19  C   UNL     1      43.476   4.148  10.913  0.00  0.00    +0.000 C 
BRANCH  19  20
ATOM     20  N   UNL     1      43.808   3.691   9.565  0.00  0.00    +0.000 NA
ATOM     21  H   UNL     1      44.419   4.380   9.126  0.00  0.00    +0.000 HD
BRANCH  20  22
ATOM     22  C   UNL     1      44.524   2.409   9.595  0.00  0.00    +0.000 C 
BRANCH  22  23
ATOM     23  C   UNL     1      45.584   2.321   8.511  0.00  0.00    +0.000 A 
ATOM     24  C   UNL     1      45.918   3.446   7.757  0.00  0.00    +0.000 A 
ATOM     25  C   UNL     1      46.906   3.338   6.781  0.00  0.00    +0.000 A 
ATOM     26  C   UNL     1      47.528   2.113   6.576  0.00  0.00    +0.000 A 
ATOM     27  C   UNL     1      47.135   1.043   7.362  0.00  0.00    +0.000 A 
ATOM     28  N   UNL     1      46.185   1.117   8.322  0.00  0.00    +0.000 NA
ENDBRANCH  22  23
ENDBRANCH  20  22
ENDBRANCH  19  20
ENDBRANCH   4  19
TORSDOF 7
ENDMDL
MODEL 4
REMARK VINA RESULT:    -7.105      1.521      1.997
REMARK INTER + INTRA:         -10.793
REMARK INTER:                 -10.066
REMARK INTRA:                  -0.726
REMARK UNBOUND:                -0.781
REMARK  Name = 
REMARK  7 active torsions:
REMARK  status: ('A' for Active; 'I' for Inactive)
REMARK    1  A    between atoms: C_2  and  C_11
REMARK    2  A    between atoms: N_3  and  C_4
REMARK    3  A    between atoms: C_4  and  C_5
REMARK    4  A    between atoms: C_14  and  C_15
REMARK    5  A    between atoms: C_15  and  N_16
REMARK    6  A    between atoms: N_16  and  C_17
REMARK    7  A    between atoms: C_17  and  C_18
REMARK                            x       y       z     vdW  Elec       q    Type
REMARK                         _______ _______ _______ _____ _____    ______ ____
ROOT
ATOM      1  C   UNL     1      46.942   4.481  14.347  0.00  0.00    +0.000 A 
ATOM      2  C   UNL     1      46.304   3.460  13.640  0.00  0.00    +0.000 A 
ATOM      3  C   UNL     1      45.706   3.727  12.399  0.00  0.00    +0.000 A 
ATOM      4  C   UNL     1      45.742   5.017  11.847  0.00  0.00    +0.000 A 
ATOM      5  C   UNL     1      46.398   6.032  12.556  0.00  0.00    +0.000 A 
ATOM      6  C   UNL     1      47.001   5.767  13.790  0.00  0.00    +0.000 A 
ENDROOT
BRANCH   1   8
ATOM      7  O   UNL     1      48.236   3.168  15.834  0.00  0.00    +0.000 OA
ATOM      8  C   UNL     1      47.544   4.169  15.683  0.00  0.00    +0.000 C 
ATOM      9  N   UNL     1      47.231   5.050  16.698  0.00  0.00    +0.000 N 
ATOM     10  H   UNL     1      46.618   5.824  16.496  0.00  0.00    +0.000 HD
BRANCH   9  11
ATOM     11  C   UNL     1      47.716   4.923  18.066  0.00  0.00    +0.000 C 
BRANCH  11  12
ATOM     12  C   UNL     1      48.833   5.943  18.376  0.00  0.00    +0.000 C 
ATOM     13  C   UNL     1      50.191   5.565  17.760  0.00  0.00    +0.000 C 
ATOM     14  C   UNL     1      50.763   4.311  18.418  0.00  0.00    +0.000 C 
ATOM     15  N   UNL     1      50.977   4.525  19.849  0.00  0.00    +0.000 NA
ATOM     16  C   UNL     1      49.744   4.917  20.536  0.00  0.00    +0.000 C 
ATOM     17  C   UNL     1      49.051   6.122  19.890  0.00  0.00    +0.000 C 
ATOM     18  H   UNL     1      51.672   5.263  19.971  0.00  0.00    +0.000 HD
ENDBRANCH  11  12
ENDBRANCH   9  11
ENDBRANCH   1   8
BRANCH   4  19
ATOM     19  C   UNL     1      45.119   5.298  10.494  0.00  0.00    +0.000 C 
BRANCH  19  20
ATOM     20  N   UNL     1      44.514   4.094   9.930  0.00  0.00    +0.000 NA
ATOM     21  H   UNL     1      43.535   4.053  10.215  0.00  0.00    +0.000 HD
BRANCH  20  22
ATOM     22  C   UNL     1      44.553   4.113   8.461  0.00  0.00    +0.000 C 
BRANCH  22  23
ATOM     23  C   UNL     1      45.576   3.138   7.904  0.00  0.00    +0.000 A 
ATOM     24  C   UNL     1      46.437   3.526   6.877  0.00  0.00    +0.000 A 
ATOM     25  C   UNL     1      47.374   2.614   6.399  0.00  0.00    +0.000 A 
ATOM     26  C   UNL     1      47.425   1.340   6.949  0.00  0.00    +0.000 A 
ATOM     27  C   UNL     1      46.531   1.030   7.961  0.00  0.00    +0.000 A 
ATOM     28  N   UNL     1      45.614   1.895   8.451  0.00  0.00    +0.000 NA
ENDBRANCH  22  23
ENDBRANCH  20  22
ENDBRANCH  19  20
ENDBRANCH   4  19
TORSDOF 7
ENDMDL
MODEL 5
REMARK VINA RESULT:    -7.086      2.945      4.286
REMARK INTER + INTRA:         -10.766
REMARK INTER:                 -10.002
REMARK INTRA:                  -0.764
REMARK UNBOUND:                -0.781
REMARK  Name = 
REMARK  7 active torsions:
REMARK  status: ('A' for Active; 'I' for Inactive)
REMARK    1  A    between atoms: C_2  and  C_11
REMARK    2  A    between atoms: N_3  and  C_4
REMARK    3  A    between atoms: C_4  and  C_5
REMARK    4  A    between atoms: C_14  and  C_15
REMARK    5  A    between atoms: C_15  and  N_16
REMARK    6  A    between atoms: N_16  and  C_17
REMARK    7  A    between atoms: C_17  and  C_18
REMARK                            x       y       z     vdW  Elec       q    Type
REMARK                         _______ _______ _______ _____ _____    ______ ____
ROOT
ATOM      1  C   UNL     1      46.604   6.068  12.965  0.00  0.00    +0.000 A 
ATOM      2  C   UNL     1      46.038   4.921  13.523  0.00  0.00    +0.000 A 
ATOM      3  C   UNL     1      44.985   4.263  12.869  0.00  0.00    +0.000 A 
ATOM      4  C   UNL     1      44.487   4.743  11.648  0.00  0.00    +0.000 A 
ATOM      5  C   UNL     1      45.072   5.886  11.087  0.00  0.00    +0.000 A 
ATOM      6  C   UNL     1      46.127   6.539  11.733  0.00  0.00    +0.000 A 
ENDROOT
BRANCH   1   8
ATOM      7  O   UNL     1      48.716   6.149  14.035  0.00  0.00    +0.000 OA
ATOM      8  C   UNL     1      47.708   6.763  13.703  0.00  0.00    +0.000 C 
ATOM      9  N   UNL     1      47.482   8.092  14.000  0.00  0.00    +0.000 N 
ATOM     10  H   UNL     1      46.605   8.507  13.727  0.00  0.00    +0.000 HD
BRANCH   9  11
ATOM     11  C   UNL     1      48.430   8.941  14.710  0.00  0.00    +0.000 C 
BRANCH  11  12
ATOM     12  C   UNL     1      48.662  10.279  13.977  0.00  0.00    +0.000 C 
ATOM     13  C   UNL     1      48.493  10.174  12.451  0.00  0.00    +0.000 C 
ATOM     14  C   UNL     1      49.598   9.319  11.833  0.00  0.00    +0.000 C 
ATOM     15  N   UNL     1      50.914   9.903  12.088  0.00  0.00    +0.000 NA
ATOM     16  C   UNL     1      51.172  10.072  13.520  0.00  0.00    +0.000 C 
ATOM     17  C   UNL     1      50.067  10.851  14.244  0.00  0.00    +0.000 C 
ATOM     18  H   UNL     1      50.962  10.815  11.634  0.00  0.00    +0.000 HD
ENDBRANCH  11  12
ENDBRANCH   9  11
ENDBRANCH   1   8
BRANCH   4  19
ATOM     19  C   UNL     1      43.366   4.017  10.930  0.00  0.00    +0.000 C 
BRANCH  19  20
ATOM     20  N   UNL     1      43.763   3.638   9.576  0.00  0.00    +0.000 NA
ATOM     21  H   UNL     1      44.359   4.372   9.191  0.00  0.00    +0.000 HD
BRANCH  20  22
ATOM     22  C   UNL     1      44.534   2.387   9.575  0.00  0.00    +0.000 C 
BRANCH  22  23
ATOM     23  C   UNL     1      45.565   2.352   8.460  0.00  0.00    +0.000 A 
ATOM     24  C   UNL     1      45.823   3.495   7.701  0.00  0.00    +0.000 A 
ATOM     25  C   UNL     1      46.786   3.436   6.697  0.00  0.00    +0.000 A 
ATOM     26  C   UNL     1      47.459   2.243   6.469  0.00  0.00    +0.000 A 
ATOM     27  C   UNL     1      47.140   1.152   7.261  0.00  0.00    +0.000 A 
ATOM     28  N   UNL     1      46.215   1.179   8.248  0.00  0.00    +0.000 NA
ENDBRANCH  22  23
ENDBRANCH  20  22
ENDBRANCH  19  20
ENDBRANCH   4  19
TORSDOF 7
ENDMDL
MODEL 6
REMARK VINA RESULT:    -6.585      2.035      2.671
REMARK INTER + INTRA:         -10.060
REMARK INTER:                  -9.419
REMARK INTRA:                  -0.641
REMARK UNBOUND:                -0.781
REMARK  Name = 
REMARK  7 active torsions:
REMARK  status: ('A' for Active; 'I' for Inactive)
REMARK    1  A    between atoms: C_2  and  C_11
REMARK    2  A    between atoms: N_3  and  C_4
REMARK    3  A    between atoms: C_4  and  C_5
REMARK    4  A    between atoms: C_14  and  C_15
REMARK    5  A    between atoms: C_15  and  N_16
REMARK    6  A    between atoms: N_16  and  C_17
REMARK    7  A    between atoms: C_17  and  C_18
REMARK                            x       y       z     vdW  Elec       q    Type
REMARK                         _______ _______ _______ _____ _____    ______ ____
ROOT
ATOM      1  C   UNL     1      47.598   5.407  14.796  0.00  0.00    +0.000 A 
ATOM      2  C   UNL     1      47.595   6.258  13.689  0.00  0.00    +0.000 A 
ATOM      3  C   UNL     1      46.810   5.953  12.566  0.00  0.00    +0.000 A 
ATOM      4  C   UNL     1      46.016   4.796  12.538  0.00  0.00    +0.000 A 
ATOM      5  C   UNL     1      46.013   3.956  13.660  0.00  0.00    +0.000 A 
ATOM      6  C   UNL     1      46.788   4.262  14.783  0.00  0.00    +0.000 A 
ENDROOT
BRANCH   1   8
ATOM      7  O   UNL     1      49.400   5.014  16.281  0.00  0.00    +0.000 OA
ATOM      8  C   UNL     1      48.470   5.747  15.967  0.00  0.00    +0.000 C 
ATOM      9  N   UNL     1      48.123   6.892  16.654  0.00  0.00    +0.000 N 
ATOM     10  H   UNL     1      47.316   7.413  16.353  0.00  0.00    +0.000 HD
BRANCH   9  11
ATOM     11  C   UNL     1      48.843   7.392  17.818  0.00  0.00    +0.000 C 
BRANCH  11  12
ATOM     12  C   UNL     1      47.976   7.340  19.095  0.00  0.00    +0.000 C 
ATOM     13  C   UNL     1      48.570   8.142  20.266  0.00  0.00    +0.000 C 
ATOM     14  C   UNL     1      49.860   7.500  20.774  0.00  0.00    +0.000 C 
ATOM     15  N   UNL     1      49.612   6.142  21.255  0.00  0.00    +0.000 NA
ATOM     16  C   UNL     1      49.020   5.292  20.220  0.00  0.00    +0.000 C 
ATOM     17  C   UNL     1      47.760   5.898  19.591  0.00  0.00    +0.000 C 
ATOM     18  H   UNL     1      48.975   6.187  22.051  0.00  0.00    +0.000 HD
ENDBRANCH  11  12
ENDBRANCH   9  11
ENDBRANCH   1   8
BRANCH   4  19
ATOM     19  C   UNL     1      45.149   4.481  11.335  0.00  0.00    +0.000 C 
BRANCH  19  20
ATOM     20  N   UNL     1      45.037   3.039  11.126  0.00  0.00    +0.000 NA
ATOM     21  H   UNL     1      44.482   2.640  11.883  0.00  0.00    +0.000 HD
BRANCH  20  22
ATOM     22  C   UNL     1      44.358   2.733   9.860  0.00  0.00    +0.000 C 
BRANCH  22  23
ATOM     23  C   UNL     1      45.340   2.539   8.717  0.00  0.00    +0.000 A 
ATOM     24  C   UNL     1      45.583   3.573   7.812  0.00  0.00    +0.000 A 
ATOM     25  C   UNL     1      46.502   3.371   6.785  0.00  0.00    +0.000 A 
ATOM     26  C   UNL     1      47.145   2.145   6.680  0.00  0.00    +0.000 A 
ATOM     27  C   UNL     1      46.843   1.168   7.614  0.00  0.00    +0.000 A 
ATOM     28  N   UNL     1      45.962   1.335   8.627  0.00  0.00    +0.000 NA
ENDBRANCH  22  23
ENDBRANCH  20  22
ENDBRANCH  19  20
ENDBRANCH   4  19
TORSDOF 7
ENDMDL
MODEL 7
REMARK VINA RESULT:    -6.252      1.888      2.871
REMARK INTER + INTRA:          -9.592
REMARK INTER:                  -8.864
REMARK INTRA:                  -0.728
REMARK UNBOUND:                -0.781
REMARK  Name = 
REMARK  7 active torsions:
REMARK  status: ('A' for Active; 'I' for Inactive)
REMARK    1  A    between atoms: C_2  and  C_11
REMARK    2  A    between atoms: N_3  and  C_4
REMARK    3  A    between atoms: C_4  and  C_5
REMARK    4  A    between atoms: C_14  and  C_15
REMARK    5  A    between atoms: C_15  and  N_16
REMARK    6  A    between atoms: N_16  and  C_17
REMARK    7  A    between atoms: C_17  and  C_18
REMARK                            x       y       z     vdW  Elec       q    Type
REMARK                         _______ _______ _______ _____ _____    ______ ____
ROOT
ATOM      1  C   UNL     1      47.751   5.451  15.207  0.00  0.00    +0.000 A 
ATOM      2  C   UNL     1      46.919   4.410  14.790  0.00  0.00    +0.000 A 
ATOM      3  C   UNL     1      46.289   4.468  13.537  0.00  0.00    +0.000 A 
ATOM      4  C   UNL     1      46.487   5.565  12.685  0.00  0.00    +0.000 A 
ATOM      5  C   UNL     1      47.336   6.598  13.105  0.00  0.00    +0.000 A 
ATOM      6  C   UNL     1      47.971   6.539  14.349  0.00  0.00    +0.000 A 
ENDROOT
BRANCH   1   8
ATOM      7  O   UNL     1      48.082   4.472  17.338  0.00  0.00    +0.000 OA
ATOM      8  C   UNL     1      48.385   5.371  16.563  0.00  0.00    +0.000 C 
ATOM      9  N   UNL     1      49.275   6.382  16.864  0.00  0.00    +0.000 N 
ATOM     10  H   UNL     1      49.433   7.108  16.183  0.00  0.00    +0.000 HD
BRANCH   9  11
ATOM     11  C   UNL     1      49.994   6.484  18.127  0.00  0.00    +0.000 C 
BRANCH  11  12
ATOM     12  C   UNL     1      51.510   6.253  17.944  0.00  0.00    +0.000 C 
ATOM     13  C   UNL     1      51.842   4.924  17.243  0.00  0.00    +0.000 C 
ATOM     14  C   UNL     1      51.478   3.731  18.125  0.00  0.00    +0.000 C 
ATOM     15  N   UNL     1      52.228   3.762  19.379  0.00  0.00    +0.000 NA
ATOM     16  C   UNL     1      52.004   5.004  20.123  0.00  0.00    +0.000 C 
ATOM     17  C   UNL     1      52.264   6.262  19.286  0.00  0.00    +0.000 C 
ATOM     18  H   UNL     1      53.223   3.678  19.169  0.00  0.00    +0.000 HD
ENDBRANCH  11  12
ENDBRANCH   9  11
ENDBRANCH   1   8
BRANCH   4  19
ATOM     19  C   UNL     1      45.826   5.615  11.321  0.00  0.00    +0.000 C 
BRANCH  19  20
ATOM     20  N   UNL     1      44.738   4.645  11.224  0.00  0.00    +0.000 NA
ATOM     21  H   UNL     1      43.975   4.947  11.830  0.00  0.00    +0.000 HD
BRANCH  20  22
ATOM     22  C   UNL     1      44.217   4.560   9.853  0.00  0.00    +0.000 C 
BRANCH  22  23
ATOM     23  C   UNL     1      45.114   3.730   8.952  0.00  0.00    +0.000 A 
ATOM     24  C   UNL     1      45.229   2.352   9.144  0.00  0.00    +0.000 A 
ATOM     25  C   UNL     1      46.047   1.616   8.290  0.00  0.00    +0.000 A 
ATOM     26  C   UNL     1      46.734   2.270   7.276  0.00  0.00    +0.000 A 
ATOM     27  C   UNL     1      46.572   3.640   7.156  0.00  0.00    +0.000 A 
ATOM     28  N   UNL     1      45.780   4.382   7.964  0.00  0.00    +0.000 NA
ENDBRANCH  22  23
ENDBRANCH  20  22
ENDBRANCH  19  20
ENDBRANCH   4  19
TORSDOF 7
ENDMDL
MODEL 8
REMARK VINA RESULT:    -6.133      3.750      5.271
REMARK INTER + INTRA:          -9.423
REMARK INTER:                  -8.412
REMARK INTRA:                  -1.011
REMARK UNBOUND:                -0.781
REMARK  Name = 
REMARK  7 active torsions:
REMARK  status: ('A' for Active; 'I' for Inactive)
REMARK    1  A    between atoms: C_2  and  C_11
REMARK    2  A    between atoms: N_3  and  C_4
REMARK    3  A    between atoms: C_4  and  C_5
REMARK    4  A    between atoms: C_14  and  C_15
REMARK    5  A    between atoms: C_15  and  N_16
REMARK    6  A    between atoms: N_16  and  C_17
REMARK    7  A    between atoms: C_17  and  C_18
REMARK                            x       y       z     vdW  Elec       q    Type
REMARK                         _______ _______ _______ _____ _____    ______ ____
ROOT
ATOM      1  C   UNL     1      47.272   7.027  13.055  0.00  0.00    +0.000 A 
ATOM      2  C   UNL     1      46.083   7.269  12.365  0.00  0.00    +0.000 A 
ATOM      3  C   UNL     1      45.079   6.288  12.322  0.00  0.00    +0.000 A 
ATOM      4  C   UNL     1      45.252   5.056  12.971  0.00  0.00    +0.000 A 
ATOM      5  C   UNL     1      46.442   4.828  13.675  0.00  0.00    +0.000 A 
ATOM      6  C   UNL     1      47.440   5.806  13.726  0.00  0.00    +0.000 A 
ENDROOT
BRANCH   1   8
ATOM      7  O   UNL     1      48.812   8.483  14.113  0.00  0.00    +0.000 OA
ATOM      8  C   UNL     1      48.335   8.084  13.057  0.00  0.00    +0.000 C 
ATOM      9  N   UNL     1      48.687   8.575  11.816  0.00  0.00    +0.000 N 
ATOM     10  H   UNL     1      48.212   8.221  11.002  0.00  0.00    +0.000 HD
BRANCH   9  11
ATOM     11  C   UNL     1      49.697   9.604  11.605  0.00  0.00    +0.000 C 
BRANCH  11  12
ATOM     12  C   UNL     1      51.043   9.001  11.147  0.00  0.00    +0.000 C 
ATOM     13  C   UNL     1      51.934   8.545  12.316  0.00  0.00    +0.000 C 
ATOM     14  C   UNL     1      52.423   9.740  13.132  0.00  0.00    +0.000 C 
ATOM     15  N   UNL     1      53.218  10.647  12.304  0.00  0.00    +0.000 NA
ATOM     16  C   UNL     1      52.469  11.125  11.140  0.00  0.00    +0.000 C 
ATOM     17  C   UNL     1      51.866   9.991  10.303  0.00  0.00    +0.000 C 
ATOM     18  H   UNL     1      54.050  10.152  11.981  0.00  0.00    +0.000 HD
ENDBRANCH  11  12
ENDBRANCH   9  11
ENDBRANCH   1   8
BRANCH   4  19
ATOM     19  C   UNL     1      44.157   4.007  12.946  0.00  0.00    +0.000 C 
BRANCH  19  20
ATOM     20  N   UNL     1      44.544   2.858  12.131  0.00  0.00    +0.000 NA
ATOM     21  H   UNL     1      44.319   2.003  12.641  0.00  0.00    +0.000 HD
BRANCH  20  22
ATOM     22  C   UNL     1      43.806   2.830  10.860  0.00  0.00    +0.000 C 
BRANCH  22  23
ATOM     23  C   UNL     1      44.725   2.998   9.663  0.00  0.00    +0.000 A 
ATOM     24  C   UNL     1      45.000   4.269   9.156  0.00  0.00    +0.000 A 
ATOM     25  C   UNL     1      45.860   4.392   8.068  0.00  0.00    +0.000 A 
ATOM     26  C   UNL     1      46.415   3.249   7.507  0.00  0.00    +0.000 A 
ATOM     27  C   UNL     1      46.086   2.024   8.063  0.00  0.00    +0.000 A 
ATOM     28  N   UNL     1      45.260   1.872   9.124  0.00  0.00    +0.000 NA
ENDBRANCH  22  23
ENDBRANCH  20  22
ENDBRANCH  19  20
ENDBRANCH   4  19
TORSDOF 7
ENDMDL
MODEL 9
REMARK VINA RESULT:    -6.107      2.928      9.324
REMARK INTER + INTRA:          -9.387
REMARK INTER:                  -8.564
REMARK INTRA:                  -0.823
REMARK UNBOUND:                -0.781
REMARK  Name = 
REMARK  7 active torsions:
REMARK  status: ('A' for Active; 'I' for Inactive)
REMARK    1  A    between atoms: C_2  and  C_11
REMARK    2  A    between atoms: N_3  and  C_4
REMARK    3  A    between atoms: C_4  and  C_5
REMARK    4  A    between atoms: C_14  and  C_15
REMARK    5  A    between atoms: C_15  and  N_16
REMARK    6  A    between atoms: N_16  and  C_17
REMARK    7  A    between atoms: C_17  and  C_18
REMARK                            x       y       z     vdW  Elec       q    Type
REMARK                         _______ _______ _______ _____ _____    ______ ____
ROOT
ATOM      1  C   UNL     1      47.600   4.570  16.004  0.00  0.00    +0.000 A 
ATOM      2  C   UNL     1      47.349   3.639  17.014  0.00  0.00    +0.000 A 
ATOM      3  C   UNL     1      47.878   3.832  18.300  0.00  0.00    +0.000 A 
ATOM      4  C   UNL     1      48.662   4.959  18.592  0.00  0.00    +0.000 A 
ATOM      5  C   UNL     1      48.895   5.896  17.577  0.00  0.00    +0.000 A 
ATOM      6  C   UNL     1      48.362   5.711  16.297  0.00  0.00    +0.000 A 
ENDROOT
BRANCH   1   8
ATOM      7  O   UNL     1      47.240   3.250  14.072  0.00  0.00    +0.000 OA
ATOM      8  C   UNL     1      47.044   4.320  14.635  0.00  0.00    +0.000 C 
ATOM      9  N   UNL     1      46.353   5.374  14.072  0.00  0.00    +0.000 N 
ATOM     10  H   UNL     1      46.277   6.235  14.589  0.00  0.00    +0.000 HD
BRANCH   9  11
ATOM     11  C   UNL     1      45.737   5.331  12.752  0.00  0.00    +0.000 C 
BRANCH  11  12
ATOM     12  C   UNL     1      44.205   5.505  12.828  0.00  0.00    +0.000 C 
ATOM     13  C   UNL     1      43.477   4.260  13.362  0.00  0.00    +0.000 C 
ATOM     14  C   UNL     1      43.580   3.098  12.376  0.00  0.00    +0.000 C 
ATOM     15  N   UNL     1      42.968   3.446  11.094  0.00  0.00    +0.000 NA
ATOM     16  C   UNL     1      43.574   4.642  10.503  0.00  0.00    +0.000 C 
ATOM     17  C   UNL     1      43.591   5.842  11.457  0.00  0.00    +0.000 C 
ATOM     18  H   UNL     1      41.973   3.618  11.240  0.00  0.00    +0.000 HD
ENDBRANCH  11  12
ENDBRANCH   9  11
ENDBRANCH   1   8
BRANCH   4  19
ATOM     19  C   UNL     1      49.212   5.179  19.988  0.00  0.00    +0.000 C 
BRANCH  19  20
ATOM     20  N   UNL     1      50.370   4.324  20.241  0.00  0.00    +0.000 NA
ATOM     21  H   UNL     1      50.460   3.658  19.474  0.00  0.00    +0.000 HD
BRANCH  20  22
ATOM     22  C   UNL     1      51.611   5.109  20.302  0.00  0.00    +0.000 C 
BRANCH  22  23
ATOM     23  C   UNL     1      52.651   4.610  19.315  0.00  0.00    +0.000 A 
ATOM     24  C   UNL     1      53.024   5.396  18.224  0.00  0.00    +0.000 A 
ATOM     25  C   UNL     1      53.993   4.918  17.346  0.00  0.00    +0.000 A 
ATOM     26  C   UNL     1      54.558   3.669  17.570  0.00  0.00    +0.000 A 
ATOM     27  C   UNL     1      54.128   2.948  18.671  0.00  0.00    +0.000 A 
ATOM     28  N   UNL     1      53.195   3.387  19.547  0.00  0.00    +0.000 NA
ENDBRANCH  22  23
ENDBRANCH  20  22
ENDBRANCH  19  20
ENDBRANCH   4  19
TORSDOF 7
ENDMDL
