MODEL 1
REMARK VINA RESULT:    -8.604      0.000      0.000
REMARK INTER + INTRA:         -12.821
REMARK INTER:                 -11.621
REMARK INTRA:                  -1.200
REMARK UNBOUND:                -1.200
REMARK  Name = 
REMARK  6 active torsions:
REMARK  status: ('A' for Active; 'I' for Inactive)
REMARK    1  A    between atoms: C_2  and  C_4
REMARK    2  A    between atoms: C_7  and  O_8
REMARK    3  A    between atoms: O_8  and  C_9
REMARK    4  A    between atoms: C_9  and  C_10
REMARK    5  A    between atoms: C_10  and  C_13
REMARK    6  A    between atoms: C_17  and  N_18
REMARK                            x       y       z     vdW  Elec       q    Type
REMARK                         _______ _______ _______ _____ _____    ______ ____
ROOT
ATOM      1  C   UNL     1      43.758   4.628  12.610  0.00  0.00    +0.000 C 
ATOM      2  F   UNL     1      42.839   5.338  13.326  0.00  0.00    +0.000 F 
ATOM      3  F   UNL     1      43.612   3.331  13.016  0.00  0.00    +0.000 F 
ENDROOT
BRANCH   1   4
ATOM      4  C   UNL     1      45.174   5.129  12.842  0.00  0.00    +0.000 A 
ATOM      5  C   UNL     1      45.734   6.070  11.970  0.00  0.00    +0.000 A 
ATOM      6  C   UNL     1      47.009   6.571  12.207  0.00  0.00    +0.000 A 
ATOM      7  C   UNL     1      47.729   6.148  13.328  0.00  0.00    +0.000 A 
ATOM      8  C   UNL     1      47.213   5.209  14.230  0.00  0.00    +0.000 A 
ATOM      9  C   UNL     1      45.930   4.698  13.951  0.00  0.00    +0.000 A 
BRANCH   8  10
ATOM     10  N   UNL     1      47.909   4.826  15.364  0.00  0.00    +0.000 N 
ATOM     11  C   UNL     1      47.674   3.532  16.013  0.00  0.00    +0.000 C 
ATOM     12  C   UNL     1      47.043   3.724  17.390  0.00  0.00    +0.000 C 
ATOM     13  C   UNL     1      47.863   4.691  18.240  0.00  0.00    +0.000 C 
ATOM     14  C   UNL     1      48.074   6.013  17.503  0.00  0.00    +0.000 C 
ATOM     15  C   UNL     1      48.701   5.796  16.123  0.00  0.00    +0.000 C 
ENDBRANCH   8  10
ENDBRANCH   1   4
BRANCH   1  16
ATOM     16  C   UNL     1      43.391   4.713  11.113  0.00  0.00    +0.000 C 
BRANCH  16  17
ATOM     17  O   UNL     1      43.487   3.421  10.483  0.00  0.00    +0.000 OA
BRANCH  17  21
ATOM     18  C   UNL     1      46.371   2.654   7.651  0.00  0.00    +0.000 A 
ATOM     19  C   UNL     1      45.962   3.976   7.781  0.00  0.00    +0.000 A 
ATOM     20  C   UNL     1      44.984   4.283   8.729  0.00  0.00    +0.000 A 
ATOM     21  C   UNL     1      44.445   3.271   9.518  0.00  0.00    +0.000 A 
ATOM     22  C   UNL     1      44.921   1.976   9.310  0.00  0.00    +0.000 A 
ATOM     23  N   UNL     1      45.867   1.633   8.396  0.00  0.00    +0.000 NA
BRANCH  18  25
ATOM     24  N   UNL     1      47.498   3.141   5.555  0.00  0.00    +0.000 N 
ATOM     25  C   UNL     1      47.420   2.307   6.637  0.00  0.00    +0.000 C 
ATOM     26  O   UNL     1      48.166   1.343   6.763  0.00  0.00    +0.000 OA
ATOM     27  H   UNL     1      48.196   2.972   4.847  0.00  0.00    +0.000 HD
ATOM     28  H   UNL     1      46.887   3.947   5.498  0.00  0.00    +0.000 HD
ENDBRANCH  18  25
ENDBRANCH  17  21
ENDBRANCH  16  17
ENDBRANCH   1  16
TORSDOF 6
ENDMDL
MODEL 2
REMARK VINA RESULT:    -8.349      2.089      3.332
REMARK INTER + INTRA:         -12.477
REMARK INTER:                 -11.278
REMARK INTRA:                  -1.199
REMARK UNBOUND:                -1.200
REMARK  Name = 
REMARK  6 active torsions:
REMARK  status: ('A' for Active; 'I' for Inactive)
REMARK    1  A    between atoms: C_2  and  C_4
REMARK    2  A    between atoms: C_7  and  O_8
REMARK    3  A    between atoms: O_8  and  C_9
REMARK    4  A    between atoms: C_9  and  C_10
REMARK    5  A    between atoms: C_10  and  C_13
REMARK    6  A    between atoms: C_17  and  N_18
REMARK                            x       y       z     vdW  Elec       q    Type
REMARK                         _______ _______ _______ _____ _____    ______ ____
ROOT
ATOM      1  C   UNL     1      43.459   5.400  12.046  0.00  0.00    +0.000 C 
ATOM      2  F   UNL     1      43.276   6.588  11.399  0.00  0.00    +0.000 F 
ATOM      3  F   UNL     1      42.486   5.356  13.005  0.00  0.00    +0.000 F 
ENDROOT
BRANCH   1   4
ATOM      4  C   UNL     1      44.847   5.290  12.654  0.00  0.00    +0.000 A 
ATOM      5  C   UNL     1      45.324   4.046  13.084  0.00  0.00    +0.000 A 
ATOM      6  C   UNL     1      46.614   3.930  13.594  0.00  0.00    +0.000 A 
ATOM      7  C   UNL     1      47.442   5.053  13.662  0.00  0.00    +0.000 A 
ATOM      8  C   UNL     1      47.011   6.319  13.244  0.00  0.00    +0.000 A 
ATOM      9  C   UNL     1      45.693   6.413  12.758  0.00  0.00    +0.000 A 
BRANCH   8  10
ATOM     10  N   UNL     1      47.849   7.421  13.270  0.00  0.00    +0.000 N 
ATOM     11  C   UNL     1      47.325   8.785  13.389  0.00  0.00    +0.000 C 
ATOM     12  C   UNL     1      47.578   9.576  12.107  0.00  0.00    +0.000 C 
ATOM     13  C   UNL     1      49.050   9.522  11.709  0.00  0.00    +0.000 C 
ATOM     14  C   UNL     1      49.531   8.075  11.610  0.00  0.00    +0.000 C 
ATOM     15  C   UNL     1      49.262   7.300  12.903  0.00  0.00    +0.000 C 
ENDBRANCH   8  10
ENDBRANCH   1   4
BRANCH   1  16
ATOM     16  C   UNL     1      43.211   4.250  11.048  0.00  0.00    +0.000 C 
BRANCH  16  17
ATOM     17  O   UNL     1      43.584   4.636   9.711  0.00  0.00    +0.000 OA
BRANCH  17  21
ATOM     18  C   UNL     1      46.216   2.017   7.939  0.00  0.00    +0.000 A 
ATOM     19  C   UNL     1      46.364   3.362   7.619  0.00  0.00    +0.000 A 
ATOM     20  C   UNL     1      45.492   4.287   8.195  0.00  0.00    +0.000 A 
ATOM     21  C   UNL     1      44.503   3.850   9.073  0.00  0.00    +0.000 A 
ATOM     22  C   UNL     1      44.435   2.480   9.329  0.00  0.00    +0.000 A 
ATOM     23  N   UNL     1      45.261   1.546   8.786  0.00  0.00    +0.000 NA
BRANCH  18  25
ATOM     24  N   UNL     1      46.903  -0.295   7.658  0.00  0.00    +0.000 N 
ATOM     25  C   UNL     1      47.144   1.010   7.328  0.00  0.00    +0.000 C 
ATOM     26  O   UNL     1      48.061   1.327   6.578  0.00  0.00    +0.000 OA
ATOM     27  H   UNL     1      47.481  -1.022   7.264  0.00  0.00    +0.000 HD
ATOM     28  H   UNL     1      46.117  -0.526   8.255  0.00  0.00    +0.000 HD
ENDBRANCH  18  25
ENDBRANCH  17  21
ENDBRANCH  16  17
ENDBRANCH   1  16
TORSDOF 6
ENDMDL
MODEL 3
REMARK VINA RESULT:    -8.085      1.954      3.172
REMARK INTER + INTRA:         -12.120
REMARK INTER:                 -11.034
REMARK INTRA:                  -1.086
REMARK UNBOUND:                -1.200
REMARK  Name = 
REMARK  6 active torsions:
REMARK  status: ('A' for Active; 'I' for Inactive)
REMARK    1  A    between atoms: C_2  and  C_4
REMARK    2  A    between atoms: C_7  and  O_8
REMARK    3  A    between atoms: O_8  and  C_9
REMARK    4  A    between atoms: C_9  and  C_10
REMARK    5  A    between atoms: C_10  and  C_13
REMARK    6  A    between atoms: C_17  and  N_18
REMARK                            x       y       z     vdW  Elec       q    Type
REMARK                         _______ _______ _______ _____ _____    ______ ____
ROOT
ATOM      1  C   UNL     1      43.487   5.408  12.139  0.00  0.00    +0.000 C 
ATOM      2  F   UNL     1      43.222   6.552  11.443  0.00  0.00    +0.000 F 
ATOM      3  F   UNL     1      42.523   5.341  13.107  0.00  0.00    +0.000 F 
ENDROOT
BRANCH   1   4
ATOM      4  C   UNL     1      44.882   5.416  12.741  0.00  0.00    +0.000 A 
ATOM      5  C   UNL     1      45.464   4.217  13.172  0.00  0.00    +0.000 A 
ATOM      6  C   UNL     1      46.760   4.211  13.675  0.00  0.00    +0.000 A 
ATOM      7  C   UNL     1      47.493   5.400  13.735  0.00  0.00    +0.000 A 
ATOM      8  C   UNL     1      46.955   6.624  13.316  0.00  0.00    +0.000 A 
ATOM      9  C   UNL     1      45.631   6.606  12.836  0.00  0.00    +0.000 A 
BRANCH   8  10
ATOM     10  N   UNL     1      47.698   7.792  13.334  0.00  0.00    +0.000 N 
ATOM     11  C   UNL     1      47.775   8.676  12.166  0.00  0.00    +0.000 C 
ATOM     12  C   UNL     1      49.188   8.685  11.587  0.00  0.00    +0.000 C 
ATOM     13  C   UNL     1      50.221   9.008  12.663  0.00  0.00    +0.000 C 
ATOM     14  C   UNL     1      50.080   8.056  13.851  0.00  0.00    +0.000 C 
ATOM     15  C   UNL     1      48.655   8.058  14.411  0.00  0.00    +0.000 C 
ENDBRANCH   8  10
ENDBRANCH   1   4
BRANCH   1  16
ATOM     16  C   UNL     1      43.310   4.201  11.193  0.00  0.00    +0.000 C 
BRANCH  16  17
ATOM     17  O   UNL     1      43.550   4.579   9.823  0.00  0.00    +0.000 OA
BRANCH  17  21
ATOM     18  C   UNL     1      46.523   2.734   7.660  0.00  0.00    +0.000 A 
ATOM     19  C   UNL     1      45.688   1.907   8.403  0.00  0.00    +0.000 A 
ATOM     20  C   UNL     1      44.665   2.489   9.154  0.00  0.00    +0.000 A 
ATOM     21  C   UNL     1      44.501   3.872   9.143  0.00  0.00    +0.000 A 
ATOM     22  C   UNL     1      45.392   4.614   8.366  0.00  0.00    +0.000 A 
ATOM     23  N   UNL     1      46.402   4.088   7.624  0.00  0.00    +0.000 NA
BRANCH  18  25
ATOM     24  N   UNL     1      48.105   2.895   5.824  0.00  0.00    +0.000 N 
ATOM     25  C   UNL     1      47.626   2.124   6.848  0.00  0.00    +0.000 C 
ATOM     26  O   UNL     1      48.078   1.008   7.080  0.00  0.00    +0.000 OA
ATOM     27  H   UNL     1      48.860   2.548   5.253  0.00  0.00    +0.000 HD
ATOM     28  H   UNL     1      47.730   3.826   5.679  0.00  0.00    +0.000 HD
ENDBRANCH  18  25
ENDBRANCH  17  21
ENDBRANCH  16  17
ENDBRANCH   1  16
TORSDOF 6
ENDMDL
MODEL 4
REMARK VINA RESULT:    -8.072      2.839      4.488
REMARK INTER + INTRA:         -12.103
REMARK INTER:                 -10.823
REMARK INTRA:                  -1.279
REMARK UNBOUND:                -1.200
REMARK  Name = 
REMARK  6 active torsions:
REMARK  status: ('A' for Active; 'I' for Inactive)
REMARK    1  A    between atoms: C_2  and  C_4
REMARK    2  A    between atoms: C_7  and  O_8
REMARK    3  A    between atoms: O_8  and  C_9
REMARK    4  A    between atoms: C_9  and  C_10
REMARK    5  A    between atoms: C_10  and  C_13
REMARK    6  A    between atoms: C_17  and  N_18
REMARK                            x       y       z     vdW  Elec       q    Type
REMARK                         _______ _______ _______ _____ _____    ______ ____
ROOT
ATOM      1  C   UNL     1      43.574   5.577  11.982  0.00  0.00    +0.000 C 
ATOM      2  F   UNL     1      42.779   6.020  10.965  0.00  0.00    +0.000 F 
ATOM      3  F   UNL     1      42.817   5.699  13.114  0.00  0.00    +0.000 F 
ENDROOT
BRANCH   1   4
ATOM      4  C   UNL     1      44.865   6.372  12.086  0.00  0.00    +0.000 A 
ATOM      5  C   UNL     1      46.096   5.706  12.108  0.00  0.00    +0.000 A 
ATOM      6  C   UNL     1      47.282   6.431  12.150  0.00  0.00    +0.000 A 
ATOM      7  C   UNL     1      47.248   7.828  12.153  0.00  0.00    +0.000 A 
ATOM      8  C   UNL     1      46.042   8.540  12.132  0.00  0.00    +0.000 A 
ATOM      9  C   UNL     1      44.856   7.782  12.117  0.00  0.00    +0.000 A 
BRANCH   8  10
ATOM     10  N   UNL     1      46.012   9.924  12.089  0.00  0.00    +0.000 N 
ATOM     11  C   UNL     1      44.793  10.658  11.735  0.00  0.00    +0.000 C 
ATOM     12  C   UNL     1      44.964  11.379  10.400  0.00  0.00    +0.000 C 
ATOM     13  C   UNL     1      46.219  12.249  10.402  0.00  0.00    +0.000 C 
ATOM     14  C   UNL     1      47.447  11.424  10.784  0.00  0.00    +0.000 C 
ATOM     15  C   UNL     1      47.251  10.705  12.122  0.00  0.00    +0.000 C 
ENDBRANCH   8  10
ENDBRANCH   1   4
BRANCH   1  16
ATOM     16  C   UNL     1      43.875   4.080  11.758  0.00  0.00    +0.000 C 
BRANCH  16  17
ATOM     17  O   UNL     1      43.442   3.655  10.451  0.00  0.00    +0.000 OA
BRANCH  17  21
ATOM     18  C   UNL     1      46.355   2.451   7.809  0.00  0.00    +0.000 A 
ATOM     19  C   UNL     1      46.037   3.804   7.811  0.00  0.00    +0.000 A 
ATOM     20  C   UNL     1      45.053   4.258   8.690  0.00  0.00    +0.000 A 
ATOM     21  C   UNL     1      44.418   3.358   9.541  0.00  0.00    +0.000 A 
ATOM     22  C   UNL     1      44.808   2.020   9.462  0.00  0.00    +0.000 A 
ATOM     23  N   UNL     1      45.757   1.536   8.618  0.00  0.00    +0.000 NA
BRANCH  18  25
ATOM     24  N   UNL     1      48.398   2.838   6.554  0.00  0.00    +0.000 N 
ATOM     25  C   UNL     1      47.410   1.946   6.870  0.00  0.00    +0.000 C 
ATOM     26  O   UNL     1      47.398   0.809   6.412  0.00  0.00    +0.000 OA
ATOM     27  H   UNL     1      49.148   2.553   5.942  0.00  0.00    +0.000 HD
ATOM     28  H   UNL     1      48.396   3.760   6.975  0.00  0.00    +0.000 HD
ENDBRANCH  18  25
ENDBRANCH  17  21
ENDBRANCH  16  17
ENDBRANCH   1  16
TORSDOF 6
ENDMDL
MODEL 5
REMARK VINA RESULT:    -7.826      2.860      4.713
REMARK INTER + INTRA:         -11.771
REMARK INTER:                 -10.759
REMARK INTRA:                  -1.011
REMARK UNBOUND:                -1.200
REMARK  Name = 
REMARK  6 active torsions:
REMARK  status: ('A' for Active; 'I' for Inactive)
REMARK    1  A    between atoms: C_2  and  C_4
REMARK    2  A    between atoms: C_7  and  O_8
REMARK    3  A    between atoms: O_8  and  C_9
REMARK    4  A    between atoms: C_9  and  C_10
REMARK    5  A    between atoms: C_10  and  C_13
REMARK    6  A    between atoms: C_17  and  N_18
REMARK                            x       y       z     vdW  Elec       q    Type
REMARK                         _______ _______ _______ _____ _____    ______ ____
ROOT
ATOM      1  C   UNL     1      44.127   4.663  12.415  0.00  0.00    +0.000 C 
ATOM      2  F   UNL     1      43.244   4.786  13.449  0.00  0.00    +0.000 F 
ATOM      3  F   UNL     1      44.834   3.522  12.676  0.00  0.00    +0.000 F 
ENDROOT
BRANCH   1   4
ATOM      4  C   UNL     1      45.041   5.871  12.298  0.00  0.00    +0.000 A 
ATOM      5  C   UNL     1      46.430   5.699  12.304  0.00  0.00    +0.000 A 
ATOM      6  C   UNL     1      47.271   6.796  12.144  0.00  0.00    +0.000 A 
ATOM      7  C   UNL     1      46.729   8.071  11.960  0.00  0.00    +0.000 A 
ATOM      8  C   UNL     1      45.346   8.294  11.946  0.00  0.00    +0.000 A 
ATOM      9  C   UNL     1      44.519   7.171  12.137  0.00  0.00    +0.000 A 
BRANCH   8  10
ATOM     10  N   UNL     1      44.811   9.551  11.718  0.00  0.00    +0.000 N 
ATOM     11  C   UNL     1      43.541   9.731  11.008  0.00  0.00    +0.000 C 
ATOM     12  C   UNL     1      43.767  10.418   9.663  0.00  0.00    +0.000 C 
ATOM     13  C   UNL     1      44.558  11.712   9.832  0.00  0.00    +0.000 C 
ATOM     14  C   UNL     1      45.863  11.453  10.584  0.00  0.00    +0.000 C 
ATOM     15  C   UNL     1      45.614  10.759  11.926  0.00  0.00    +0.000 C 
ENDBRANCH   8  10
ENDBRANCH   1   4
BRANCH   1  16
ATOM     16  C   UNL     1      43.332   4.454  11.109  0.00  0.00    +0.000 C 
BRANCH  16  17
ATOM     17  O   UNL     1      44.058   4.965   9.974  0.00  0.00    +0.000 OA
BRANCH  17  21
ATOM     18  C   UNL     1      46.492   2.535   7.717  0.00  0.00    +0.000 A 
ATOM     19  C   UNL     1      45.662   1.904   8.637  0.00  0.00    +0.000 A 
ATOM     20  C   UNL     1      44.820   2.689   9.426  0.00  0.00    +0.000 A 
ATOM     21  C   UNL     1      44.825   4.073   9.277  0.00  0.00    +0.000 A 
ATOM     22  C   UNL     1      45.695   4.610   8.327  0.00  0.00    +0.000 A 
ATOM     23  N   UNL     1      46.534   3.883   7.542  0.00  0.00    +0.000 NA
BRANCH  18  25
ATOM     24  N   UNL     1      48.495   2.357   6.354  0.00  0.00    +0.000 N 
ATOM     25  C   UNL     1      47.403   1.706   6.862  0.00  0.00    +0.000 C 
ATOM     26  O   UNL     1      47.194   0.521   6.629  0.00  0.00    +0.000 OA
ATOM     27  H   UNL     1      49.156   1.849   5.787  0.00  0.00    +0.000 HD
ATOM     28  H   UNL     1      48.655   3.329   6.593  0.00  0.00    +0.000 HD
ENDBRANCH  18  25
ENDBRANCH  17  21
ENDBRANCH  16  17
ENDBRANCH   1  16
TORSDOF 6
ENDMDL
MODEL 6
REMARK VINA RESULT:    -7.417      1.546      2.270
REMARK INTER + INTRA:         -11.219
REMARK INTER:                 -10.179
REMARK INTRA:                  -1.040
REMARK UNBOUND:                -1.200
REMARK  Name = 
REMARK  6 active torsions:
REMARK  status: ('A' for Active; 'I' for Inactive)
REMARK    1  A    between atoms: C_2  and  C_4
REMARK    2  A    between atoms: C_7  and  O_8
REMARK    3  A    between atoms: O_8  and  C_9
REMARK    4  A    between atoms: C_9  and  C_10
REMARK    5  A    between atoms: C_10  and  C_13
REMARK    6  A    between atoms: C_17  and  N_18
REMARK                            x       y       z     vdW  Elec       q    Type
REMARK                         _______ _______ _______ _____ _____    ______ ____
ROOT
ATOM      1  C   UNL     1      45.003   5.417  12.585  0.00  0.00    +0.000 C 
ATOM      2  F   UNL     1      44.072   6.010  13.389  0.00  0.00    +0.000 F 
ATOM      3  F   UNL     1      45.014   4.100  12.954  0.00  0.00    +0.000 F 
ENDROOT
BRANCH   1   4
ATOM      4  C   UNL     1      46.375   6.051  12.737  0.00  0.00    +0.000 A 
ATOM      5  C   UNL     1      46.998   6.640  11.630  0.00  0.00    +0.000 A 
ATOM      6  C   UNL     1      48.232   7.268  11.775  0.00  0.00    +0.000 A 
ATOM      7  C   UNL     1      48.844   7.325  13.030  0.00  0.00    +0.000 A 
ATOM      8  C   UNL     1      48.261   6.750  14.167  0.00  0.00    +0.000 A 
ATOM      9  C   UNL     1      47.026   6.098  13.987  0.00  0.00    +0.000 A 
BRANCH   8  10
ATOM     10  N   UNL     1      48.847   6.848  15.417  0.00  0.00    +0.000 N 
ATOM     11  C   UNL     1      50.014   7.704  15.658  0.00  0.00    +0.000 C 
ATOM     12  C   UNL     1      51.244   6.861  15.986  0.00  0.00    +0.000 C 
ATOM     13  C   UNL     1      50.956   5.890  17.128  0.00  0.00    +0.000 C 
ATOM     14  C   UNL     1      49.728   5.037  16.815  0.00  0.00    +0.000 C 
ATOM     15  C   UNL     1      48.509   5.901  16.482  0.00  0.00    +0.000 C 
ENDBRANCH   8  10
ENDBRANCH   1   4
BRANCH   1  16
ATOM     16  C   UNL     1      44.522   5.507  11.122  0.00  0.00    +0.000 C 
BRANCH  16  17
ATOM     17  O   UNL     1      44.152   4.210  10.617  0.00  0.00    +0.000 OA
BRANCH  17  21
ATOM     18  C   UNL     1      46.464   2.999   7.438  0.00  0.00    +0.000 A 
ATOM     19  C   UNL     1      45.940   1.996   8.245  0.00  0.00    +0.000 A 
ATOM     20  C   UNL     1      45.150   2.359   9.337  0.00  0.00    +0.000 A 
ATOM     21  C   UNL     1      44.903   3.706   9.592  0.00  0.00    +0.000 A 
ATOM     22  C   UNL     1      45.476   4.637   8.724  0.00  0.00    +0.000 A 
ATOM     23  N   UNL     1      46.253   4.325   7.654  0.00  0.00    +0.000 NA
BRANCH  18  25
ATOM     24  N   UNL     1      48.509   2.026   6.559  0.00  0.00    +0.000 N 
ATOM     25  C   UNL     1      47.315   2.625   6.261  0.00  0.00    +0.000 C 
ATOM     26  O   UNL     1      46.970   2.835   5.103  0.00  0.00    +0.000 OA
ATOM     27  H   UNL     1      49.118   1.733   5.810  0.00  0.00    +0.000 HD
ATOM     28  H   UNL     1      48.749   1.838   7.525  0.00  0.00    +0.000 HD
ENDBRANCH  18  25
ENDBRANCH  17  21
ENDBRANCH  16  17
ENDBRANCH   1  16
TORSDOF 6
ENDMDL
MODEL 7
REMARK VINA RESULT:    -7.347      2.720      7.595
REMARK INTER + INTRA:         -11.123
REMARK INTER:                 -10.142
REMARK INTRA:                  -0.981
REMARK UNBOUND:                -1.200
REMARK  Name = 
REMARK  6 active torsions:
REMARK  status: ('A' for Active; 'I' for Inactive)
REMARK    1  A    between atoms: C_2  and  C_4
REMARK    2  A    between atoms: C_7  and  O_8
REMARK    3  A    between atoms: O_8  and  C_9
REMARK    4  A    between atoms: C_9  and  C_10
REMARK    5  A    between atoms: C_10  and  C_13
REMARK    6  A    between atoms: C_17  and  N_18
REMARK                            x       y       z     vdW  Elec       q    Type
REMARK                         _______ _______ _______ _____ _____    ______ ____
ROOT
ATOM      1  C   UNL     1      45.524   6.916  12.015  0.00  0.00    +0.000 C 
ATOM      2  F   UNL     1      45.078   7.432  13.198  0.00  0.00    +0.000 F 
ATOM      3  F   UNL     1      45.228   7.860  11.072  0.00  0.00    +0.000 F 
ENDROOT
BRANCH   1   4
ATOM      4  C   UNL     1      44.873   5.582  11.693  0.00  0.00    +0.000 A 
ATOM      5  C   UNL     1      43.961   5.015  12.591  0.00  0.00    +0.000 A 
ATOM      6  C   UNL     1      43.322   3.819  12.278  0.00  0.00    +0.000 A 
ATOM      7  C   UNL     1      43.577   3.190  11.056  0.00  0.00    +0.000 A 
ATOM      8  C   UNL     1      44.481   3.717  10.124  0.00  0.00    +0.000 A 
ATOM      9  C   UNL     1      45.133   4.914  10.479  0.00  0.00    +0.000 A 
BRANCH   8  10
ATOM     10  N   UNL     1      44.698   3.117   8.896  0.00  0.00    +0.000 N 
ATOM     11  C   UNL     1      44.855   1.665   8.764  0.00  0.00    +0.000 C 
ATOM     12  C   UNL     1      46.277   1.311   8.333  0.00  0.00    +0.000 C 
ATOM     13  C   UNL     1      46.679   2.083   7.079  0.00  0.00    +0.000 C 
ATOM     14  C   UNL     1      46.484   3.585   7.284  0.00  0.00    +0.000 C 
ATOM     15  C   UNL     1      45.055   3.916   7.721  0.00  0.00    +0.000 C 
ENDBRANCH   8  10
ENDBRANCH   1   4
BRANCH   1  16
ATOM     16  C   UNL     1      47.059   6.767  12.088  0.00  0.00    +0.000 C 
BRANCH  16  17
ATOM     17  O   UNL     1      47.548   7.094  13.403  0.00  0.00    +0.000 OA
BRANCH  17  21
ATOM     18  C   UNL     1      48.095   4.186  16.261  0.00  0.00    +0.000 A 
ATOM     19  C   UNL     1      47.272   3.859  15.189  0.00  0.00    +0.000 A 
ATOM     20  C   UNL     1      47.056   4.816  14.195  0.00  0.00    +0.000 A 
ATOM     21  C   UNL     1      47.665   6.064  14.295  0.00  0.00    +0.000 A 
ATOM     22  C   UNL     1      48.472   6.295  15.410  0.00  0.00    +0.000 A 
ATOM     23  N   UNL     1      48.705   5.394  16.401  0.00  0.00    +0.000 NA
BRANCH  18  25
ATOM     24  N   UNL     1      47.281   2.930  18.173  0.00  0.00    +0.000 N 
ATOM     25  C   UNL     1      48.336   3.170  17.336  0.00  0.00    +0.000 C 
ATOM     26  O   UNL     1      49.406   2.584  17.464  0.00  0.00    +0.000 OA
ATOM     27  H   UNL     1      47.375   2.242  18.906  0.00  0.00    +0.000 HD
ATOM     28  H   UNL     1      46.400   3.407  18.021  0.00  0.00    +0.000 HD
ENDBRANCH  18  25
ENDBRANCH  17  21
ENDBRANCH  16  17
ENDBRANCH   1  16
TORSDOF 6
ENDMDL
MODEL 8
REMARK VINA RESULT:    -6.688      3.911      6.098
REMARK INTER + INTRA:         -10.234
REMARK INTER:                  -9.396
REMARK INTRA:                  -0.838
REMARK UNBOUND:                -1.200
REMARK  Name = 
REMARK  6 active torsions:
REMARK  status: ('A' for Active; 'I' for Inactive)
REMARK    1  A    between atoms: C_2  and  C_4
REMARK    2  A    between atoms: C_7  and  O_8
REMARK    3  A    between atoms: O_8  and  C_9
REMARK    4  A    between atoms: C_9  and  C_10
REMARK    5  A    between atoms: C_10  and  C_13
REMARK    6  A    between atoms: C_17  and  N_18
REMARK                            x       y       z     vdW  Elec       q    Type
REMARK                         _______ _______ _______ _____ _____    ______ ____
ROOT
ATOM      1  C   UNL     1      48.101   2.870  16.827  0.00  0.00    +0.000 C 
ATOM      2  F   UNL     1      47.062   2.368  17.555  0.00  0.00    +0.000 F 
ATOM      3  F   UNL     1      48.576   1.815  16.097  0.00  0.00    +0.000 F 
ENDROOT
BRANCH   1   4
ATOM      4  C   UNL     1      49.182   3.467  17.711  0.00  0.00    +0.000 A 
ATOM      5  C   UNL     1      50.532   3.229  17.423  0.00  0.00    +0.000 A 
ATOM      6  C   UNL     1      51.526   3.816  18.199  0.00  0.00    +0.000 A 
ATOM      7  C   UNL     1      51.180   4.659  19.258  0.00  0.00    +0.000 A 
ATOM      8  C   UNL     1      49.845   4.929  19.586  0.00  0.00    +0.000 A 
ATOM      9  C   UNL     1      48.858   4.301  18.801  0.00  0.00    +0.000 A 
BRANCH   8  10
ATOM     10  N   UNL     1      49.505   5.801  20.606  0.00  0.00    +0.000 N 
ATOM     11  C   UNL     1      49.148   5.320  21.945  0.00  0.00    +0.000 C 
ATOM     12  C   UNL     1      47.677   5.599  22.245  0.00  0.00    +0.000 C 
ATOM     13  C   UNL     1      47.338   7.070  22.016  0.00  0.00    +0.000 C 
ATOM     14  C   UNL     1      47.742   7.505  20.608  0.00  0.00    +0.000 C 
ATOM     15  C   UNL     1      49.218   7.210  20.326  0.00  0.00    +0.000 C 
ENDBRANCH   8  10
ENDBRANCH   1   4
BRANCH   1  16
ATOM     16  C   UNL     1      47.553   3.930  15.848  0.00  0.00    +0.000 C 
BRANCH  16  17
ATOM     17  O   UNL     1      47.502   3.416  14.503  0.00  0.00    +0.000 OA
BRANCH  17  21
ATOM     18  C   UNL     1      44.682   5.268  12.150  0.00  0.00    +0.000 A 
ATOM     19  C   UNL     1      44.848   3.900  11.964  0.00  0.00    +0.000 A 
ATOM     20  C   UNL     1      45.795   3.229  12.739  0.00  0.00    +0.000 A 
ATOM     21  C   UNL     1      46.546   3.935  13.676  0.00  0.00    +0.000 A 
ATOM     22  C   UNL     1      46.305   5.306  13.786  0.00  0.00    +0.000 A 
ATOM     23  N   UNL     1      45.397   5.997  13.048  0.00  0.00    +0.000 NA
BRANCH  18  25
ATOM     24  N   UNL     1      43.816   7.362  11.278  0.00  0.00    +0.000 N 
ATOM     25  C   UNL     1      43.669   6.003  11.324  0.00  0.00    +0.000 C 
ATOM     26  O   UNL     1      42.767   5.431  10.723  0.00  0.00    +0.000 OA
ATOM     27  H   UNL     1      43.177   7.912  10.724  0.00  0.00    +0.000 HD
ATOM     28  H   UNL     1      44.592   7.801  11.761  0.00  0.00    +0.000 HD
ENDBRANCH  18  25
ENDBRANCH  17  21
ENDBRANCH  16  17
ENDBRANCH   1  16
TORSDOF 6
ENDMDL
MODEL 9
REMARK VINA RESULT:    -6.673      4.193      7.523
REMARK INTER + INTRA:         -10.213
REMARK INTER:                  -8.859
REMARK INTRA:                  -1.354
REMARK UNBOUND:                -1.200
REMARK  Name = 
REMARK  6 active torsions:
REMARK  status: ('A' for Active; 'I' for Inactive)
REMARK    1  A    between atoms: C_2  and  C_4
REMARK    2  A    between atoms: C_7  and  O_8
REMARK    3  A    between atoms: O_8  and  C_9
REMARK    4  A    between atoms: C_9  and  C_10
REMARK    5  A    between atoms: C_10  and  C_13
REMARK    6  A    between atoms: C_17  and  N_18
REMARK                            x       y       z     vdW  Elec       q    Type
REMARK                         _______ _______ _______ _____ _____    ______ ____
ROOT
ATOM      1  C   UNL     1      49.071   8.171  12.016  0.00  0.00    +0.000 C 
ATOM      2  F   UNL     1      49.614   9.417  12.142  0.00  0.00    +0.000 F 
ATOM      3  F   UNL     1      49.569   7.674  10.844  0.00  0.00    +0.000 F 
ENDROOT
BRANCH   1   4
ATOM      4  C   UNL     1      47.552   8.208  12.006  0.00  0.00    +0.000 A 
ATOM      5  C   UNL     1      46.882   9.423  12.197  0.00  0.00    +0.000 A 
ATOM      6  C   UNL     1      45.493   9.472  12.136  0.00  0.00    +0.000 A 
ATOM      7  C   UNL     1      44.764   8.310  11.868  0.00  0.00    +0.000 A 
ATOM      8  C   UNL     1      45.388   7.072  11.671  0.00  0.00    +0.000 A 
ATOM      9  C   UNL     1      46.793   7.045  11.763  0.00  0.00    +0.000 A 
BRANCH   8  10
ATOM     10  N   UNL     1      44.666   5.931  11.360  0.00  0.00    +0.000 N 
ATOM     11  C   UNL     1      43.214   5.861  11.552  0.00  0.00    +0.000 C 
ATOM     12  C   UNL     1      42.862   4.863  12.653  0.00  0.00    +0.000 C 
ATOM     13  C   UNL     1      43.508   3.505  12.391  0.00  0.00    +0.000 C 
ATOM     14  C   UNL     1      45.016   3.653  12.194  0.00  0.00    +0.000 C 
ATOM     15  C   UNL     1      45.346   4.662  11.091  0.00  0.00    +0.000 C 
ENDBRANCH   8  10
ENDBRANCH   1   4
BRANCH   1  16
ATOM     16  C   UNL     1      49.585   7.289  13.175  0.00  0.00    +0.000 C 
BRANCH  16  17
ATOM     17  O   UNL     1      48.859   7.558  14.390  0.00  0.00    +0.000 OA
BRANCH  17  21
ATOM     18  C   UNL     1      47.839   4.422  16.849  0.00  0.00    +0.000 A 
ATOM     19  C   UNL     1      47.298   4.412  15.569  0.00  0.00    +0.000 A 
ATOM     20  C   UNL     1      47.615   5.456  14.700  0.00  0.00    +0.000 A 
ATOM     21  C   UNL     1      48.461   6.477  15.126  0.00  0.00    +0.000 A 
ATOM     22  C   UNL     1      48.951   6.398  16.431  0.00  0.00    +0.000 A 
ATOM     23  N   UNL     1      48.663   5.402  17.310  0.00  0.00    +0.000 NA
BRANCH  18  25
ATOM     24  N   UNL     1      48.360   3.155  18.854  0.00  0.00    +0.000 N 
ATOM     25  C   UNL     1      47.507   3.307  17.795  0.00  0.00    +0.000 C 
ATOM     26  O   UNL     1      46.535   2.577  17.640  0.00  0.00    +0.000 OA
ATOM     27  H   UNL     1      48.180   2.434  19.537  0.00  0.00    +0.000 HD
ATOM     28  H   UNL     1      49.136   3.796  18.971  0.00  0.00    +0.000 HD
ENDBRANCH  18  25
ENDBRANCH  17  21
ENDBRANCH  16  17
ENDBRANCH   1  16
TORSDOF 6
ENDMDL
