MODEL 1
REMARK VINA RESULT:    -8.492      0.000      0.000
REMARK INTER + INTRA:         -14.751
REMARK INTER:                 -12.961
REMARK INTRA:                  -1.790
REMARK UNBOUND:                -1.790
REMARK  Name = 
REMARK  12 active torsions:
REMARK  status: ('A' for Active; 'I' for Inactive)
REMARK    1  A    between atoms: C_1  and  C_2
REMARK    2  A    between atoms: C_2  and  N_3
REMARK    3  A    between atoms: C_2  and  C_20
REMARK    4  A    between atoms: N_3  and  C_4
REMARK    5  A    between atoms: C_4  and  C_5
REMARK    6  A    between atoms: C_8  and  C_9
REMARK    7  A    between atoms: C_9  and  N_10
REMARK    8  A    between atoms: N_10  and  C_11
REMARK    9  A    between atoms: C_11  and  C_12
REMARK   10  A    between atoms: C_23  and  C_24
REMARK   11  A    between atoms: N_26  and  C_27
REMARK   12  A    between atoms: N_26  and  C_28
REMARK                            x       y       z     vdW  Elec       q    Type
REMARK                         _______ _______ _______ _____ _____    ______ ____
ROOT
ATOM      1  C   UNL     1      48.476   8.527  16.608  0.00  0.00    +0.000 C 
ATOM      2  C   UNL     1      49.066   7.600  15.526  0.00  0.00    +0.000 C 
ENDROOT
BRANCH   2   3
ATOM      3  C   UNL     1      49.941   6.485  16.130  0.00  0.00    +0.000 A 
ATOM      4  C   UNL     1      51.337   6.736  16.181  0.00  0.00    +0.000 A 
ATOM      5  C   UNL     1      52.188   5.973  16.973  0.00  0.00    +0.000 A 
ATOM      6  C   UNL     1      51.632   5.031  17.830  0.00  0.00    +0.000 A 
ATOM      7  C   UNL     1      50.261   5.095  18.029  0.00  0.00    +0.000 A 
ATOM      8  C   UNL     1      49.522   4.340  19.012  0.00  0.00    +0.000 A 
ATOM      9  O   UNL     1      49.093   4.889  20.027  0.00  0.00    +0.000 OA
ATOM     10  N   UNL     1      49.037   3.196  18.488  0.00  0.00    +0.000 N 
ATOM     11  C   UNL     1      48.507   3.330  17.228  0.00  0.00    +0.000 A 
ATOM     12  N   UNL     1      48.526   4.456  16.531  0.00  0.00    +0.000 NA
ATOM     13  C   UNL     1      49.446   5.468  16.984  0.00  0.00    +0.000 A 
ATOM     14  H   UNL     1      49.617   2.380  18.650  0.00  0.00    +0.000 HD
BRANCH   6  15
ATOM     15  C   UNL     1      52.373   3.858  18.350  0.00  0.00    +0.000 C 
ATOM     16  O   UNL     1      52.204   2.788  17.765  0.00  0.00    +0.000 OA
ATOM     17  N   UNL     1      53.345   3.992  19.361  0.00  0.00    +0.000 N 
ATOM     18  C   UNL     1      53.694   5.193  20.118  0.00  0.00    +0.000 C 
ATOM     19  C   UNL     1      54.007   2.781  19.822  0.00  0.00    +0.000 C 
ENDBRANCH   6  15
ENDBRANCH   2   3
BRANCH   2  20
ATOM     20  N   UNL     1      47.997   6.886  14.792  0.00  0.00    +0.000 NA
ATOM     21  H   UNL     1      47.895   5.952  15.185  0.00  0.00    +0.000 HD
BRANCH  20  22
ATOM     22  C   UNL     1      48.055   6.816  13.343  0.00  0.00    +0.000 C 
BRANCH  22  23
ATOM     23  C   UNL     1      46.926   6.077  12.691  0.00  0.00    +0.000 A 
ATOM     24  C   UNL     1      46.495   6.425  11.412  0.00  0.00    +0.000 A 
ATOM     25  C   UNL     1      45.412   5.763  10.840  0.00  0.00    +0.000 A 
ATOM     26  C   UNL     1      44.780   4.758  11.565  0.00  0.00    +0.000 A 
ATOM     27  N   UNL     1      45.175   4.402  12.814  0.00  0.00    +0.000 NA
ATOM     28  C   UNL     1      46.231   5.065  13.344  0.00  0.00    +0.000 A 
BRANCH  26  29
ATOM     29  C   UNL     1      43.582   4.037  10.973  0.00  0.00    +0.000 C 
BRANCH  29  30
ATOM     30  N   UNL     1      43.783   3.531   9.609  0.00  0.00    +0.000 NA
ATOM     31  H   UNL     1      44.304   4.245   9.099  0.00  0.00    +0.000 HD
BRANCH  30  32
ATOM     32  C   UNL     1      44.565   2.297   9.577  0.00  0.00    +0.000 C 
BRANCH  32  33
ATOM     33  C   UNL     1      45.556   2.329   8.437  0.00  0.00    +0.000 A 
ATOM     34  C   UNL     1      46.324   1.195   8.132  0.00  0.00    +0.000 A 
ATOM     35  C   UNL     1      47.227   1.216   7.069  0.00  0.00    +0.000 A 
ATOM     36  C   UNL     1      47.381   2.373   6.307  0.00  0.00    +0.000 A 
ATOM     37  C   UNL     1      46.648   3.517   6.622  0.00  0.00    +0.000 A 
ATOM     38  C   UNL     1      45.743   3.497   7.685  0.00  0.00    +0.000 A 
ENDBRANCH  32  33
ENDBRANCH  30  32
ENDBRANCH  29  30
ENDBRANCH  26  29
ENDBRANCH  22  23
ENDBRANCH  20  22
ENDBRANCH   2  20
TORSDOF 9
ENDMDL
MODEL 2
REMARK VINA RESULT:    -8.386      1.980      2.910
REMARK INTER + INTRA:         -14.588
REMARK INTER:                 -12.657
REMARK INTRA:                  -1.931
REMARK UNBOUND:                -1.790
REMARK  Name = 
REMARK  12 active torsions:
REMARK  status: ('A' for Active; 'I' for Inactive)
REMARK    1  A    between atoms: C_1  and  C_2
REMARK    2  A    between atoms: C_2  and  N_3
REMARK    3  A    between atoms: C_2  and  C_20
REMARK    4  A    between atoms: N_3  and  C_4
REMARK    5  A    between atoms: C_4  and  C_5
REMARK    6  A    between atoms: C_8  and  C_9
REMARK    7  A    between atoms: C_9  and  N_10
REMARK    8  A    between atoms: N_10  and  C_11
REMARK    9  A    between atoms: C_11  and  C_12
REMARK   10  A    between atoms: C_23  and  C_24
REMARK   11  A    between atoms: N_26  and  C_27
REMARK   12  A    between atoms: N_26  and  C_28
REMARK                            x       y       z     vdW  Elec       q    Type
REMARK                         _______ _______ _______ _____ _____    ______ ____
ROOT
ATOM      1  C   UNL     1      49.810   9.200  14.706  0.00  0.00    +0.000 C 
ATOM      2  C   UNL     1      50.228   7.752  15.030  0.00  0.00    +0.000 C 
ENDROOT
BRANCH   2   3
ATOM      3  C   UNL     1      49.774   7.316  16.436  0.00  0.00    +0.000 A 
ATOM      4  C   UNL     1      49.256   8.336  17.276  0.00  0.00    +0.000 A 
ATOM      5  C   UNL     1      48.529   8.037  18.424  0.00  0.00    +0.000 A 
ATOM      6  C   UNL     1      48.197   6.711  18.674  0.00  0.00    +0.000 A 
ATOM      7  C   UNL     1      48.385   5.810  17.637  0.00  0.00    +0.000 A 
ATOM      8  C   UNL     1      47.932   4.440  17.627  0.00  0.00    +0.000 A 
ATOM      9  O   UNL     1      46.963   4.109  16.945  0.00  0.00    +0.000 OA
ATOM     10  N   UNL     1      48.896   3.602  18.059  0.00  0.00    +0.000 N 
ATOM     11  C   UNL     1      50.150   3.884  17.574  0.00  0.00    +0.000 A 
ATOM     12  N   UNL     1      50.433   4.927  16.808  0.00  0.00    +0.000 NA
ATOM     13  C   UNL     1      49.450   5.980  16.782  0.00  0.00    +0.000 A 
ATOM     14  H   UNL     1      48.836   3.362  19.042  0.00  0.00    +0.000 HD
BRANCH   6  15
ATOM     15  C   UNL     1      47.875   6.188  20.023  0.00  0.00    +0.000 C 
ATOM     16  O   UNL     1      46.685   6.017  20.285  0.00  0.00    +0.000 OA
ATOM     17  N   UNL     1      48.887   5.757  20.904  0.00  0.00    +0.000 N 
ATOM     18  C   UNL     1      50.334   5.849  20.724  0.00  0.00    +0.000 C 
ATOM     19  C   UNL     1      48.476   5.277  22.215  0.00  0.00    +0.000 C 
ENDBRANCH   6  15
ENDBRANCH   2   3
BRANCH   2  20
ATOM     20  N   UNL     1      49.582   6.789  14.109  0.00  0.00    +0.000 NA
ATOM     21  H   UNL     1      50.305   6.247  13.639  0.00  0.00    +0.000 HD
BRANCH  20  22
ATOM     22  C   UNL     1      48.610   7.271  13.145  0.00  0.00    +0.000 C 
BRANCH  22  23
ATOM     23  C   UNL     1      47.497   6.319  12.825  0.00  0.00    +0.000 A 
ATOM     24  C   UNL     1      47.243   5.222  13.647  0.00  0.00    +0.000 A 
ATOM     25  C   UNL     1      46.240   4.319  13.308  0.00  0.00    +0.000 A 
ATOM     26  C   UNL     1      45.505   4.535  12.147  0.00  0.00    +0.000 A 
ATOM     27  N   UNL     1      45.735   5.592  11.326  0.00  0.00    +0.000 NA
ATOM     28  C   UNL     1      46.718   6.452  11.681  0.00  0.00    +0.000 A 
BRANCH  26  29
ATOM     29  C   UNL     1      44.421   3.551  11.743  0.00  0.00    +0.000 C 
BRANCH  29  30
ATOM     30  N   UNL     1      44.839   2.549  10.755  0.00  0.00    +0.000 NA
ATOM     31  H   UNL     1      44.416   1.663  11.031  0.00  0.00    +0.000 HD
BRANCH  30  32
ATOM     32  C   UNL     1      44.379   2.866   9.405  0.00  0.00    +0.000 C 
BRANCH  32  33
ATOM     33  C   UNL     1      45.469   2.586   8.396  0.00  0.00    +0.000 A 
ATOM     34  C   UNL     1      45.867   3.578   7.487  0.00  0.00    +0.000 A 
ATOM     35  C   UNL     1      46.885   3.328   6.566  0.00  0.00    +0.000 A 
ATOM     36  C   UNL     1      47.507   2.081   6.536  0.00  0.00    +0.000 A 
ATOM     37  C   UNL     1      47.097   1.077   7.411  0.00  0.00    +0.000 A 
ATOM     38  C   UNL     1      46.079   1.325   8.334  0.00  0.00    +0.000 A 
ENDBRANCH  32  33
ENDBRANCH  30  32
ENDBRANCH  29  30
ENDBRANCH  26  29
ENDBRANCH  22  23
ENDBRANCH  20  22
ENDBRANCH   2  20
TORSDOF 9
ENDMDL
MODEL 3
REMARK VINA RESULT:    -8.225      1.728      2.038
REMARK INTER + INTRA:         -14.342
REMARK INTER:                 -12.526
REMARK INTRA:                  -1.816
REMARK UNBOUND:                -1.790
REMARK  Name = 
REMARK  12 active torsions:
REMARK  status: ('A' for Active; 'I' for Inactive)
REMARK    1  A    between atoms: C_1  and  C_2
REMARK    2  A    between atoms: C_2  and  N_3
REMARK    3  A    between atoms: C_2  and  C_20
REMARK    4  A    between atoms: N_3  and  C_4
REMARK    5  A    between atoms: C_4  and  C_5
REMARK    6  A    between atoms: C_8  and  C_9
REMARK    7  A    between atoms: C_9  and  N_10
REMARK    8  A    between atoms: N_10  and  C_11
REMARK    9  A    between atoms: C_11  and  C_12
REMARK   10  A    between atoms: C_23  and  C_24
REMARK   11  A    between atoms: N_26  and  C_27
REMARK   12  A    between atoms: N_26  and  C_28
REMARK                            x       y       z     vdW  Elec       q    Type
REMARK                         _______ _______ _______ _____ _____    ______ ____
ROOT
ATOM      1  C   UNL     1      49.378   8.702  14.563  0.00  0.00    +0.000 C 
ATOM      2  C   UNL     1      49.587   7.190  14.783  0.00  0.00    +0.000 C 
ENDROOT
BRANCH   2   3
ATOM      3  C   UNL     1      49.749   6.836  16.273  0.00  0.00    +0.000 A 
ATOM      4  C   UNL     1      50.295   7.847  17.107  0.00  0.00    +0.000 A 
ATOM      5  C   UNL     1      50.200   7.781  18.493  0.00  0.00    +0.000 A 
ATOM      6  C   UNL     1      49.438   6.767  19.059  0.00  0.00    +0.000 A 
ATOM      7  C   UNL     1      48.615   6.048  18.206  0.00  0.00    +0.000 A 
ATOM      8  C   UNL     1      47.615   5.092  18.616  0.00  0.00    +0.000 A 
ATOM      9  O   UNL     1      46.419   5.378  18.563  0.00  0.00    +0.000 OA
ATOM     10  N   UNL     1      48.110   3.838  18.623  0.00  0.00    +0.000 N 
ATOM     11  C   UNL     1      48.904   3.536  17.544  0.00  0.00    +0.000 A 
ATOM     12  N   UNL     1      49.236   4.405  16.601  0.00  0.00    +0.000 NA
ATOM     13  C   UNL     1      49.035   5.796  16.919  0.00  0.00    +0.000 A 
ATOM     14  H   UNL     1      48.439   3.520  19.529  0.00  0.00    +0.000 HD
BRANCH   6  15
ATOM     15  C   UNL     1      49.623   6.281  20.448  0.00  0.00    +0.000 C 
ATOM     16  O   UNL     1      48.819   6.682  21.290  0.00  0.00    +0.000 OA
ATOM     17  N   UNL     1      50.572   5.287  20.757  0.00  0.00    +0.000 N 
ATOM     18  C   UNL     1      51.561   4.681  19.868  0.00  0.00    +0.000 C 
ATOM     19  C   UNL     1      50.696   4.888  22.152  0.00  0.00    +0.000 C 
ENDBRANCH   6  15
ENDBRANCH   2   3
BRANCH   2  20
ATOM     20  N   UNL     1      48.408   6.415  14.336  0.00  0.00    +0.000 NA
ATOM     21  H   UNL     1      48.723   5.524  13.958  0.00  0.00    +0.000 HD
BRANCH  20  22
ATOM     22  C   UNL     1      47.452   7.032  13.435  0.00  0.00    +0.000 C 
BRANCH  22  23
ATOM     23  C   UNL     1      46.488   6.090  12.779  0.00  0.00    +0.000 A 
ATOM     24  C   UNL     1      46.025   6.335  11.487  0.00  0.00    +0.000 A 
ATOM     25  C   UNL     1      45.091   5.479  10.911  0.00  0.00    +0.000 A 
ATOM     26  C   UNL     1      44.639   4.386  11.644  0.00  0.00    +0.000 A 
ATOM     27  N   UNL     1      45.069   4.127  12.905  0.00  0.00    +0.000 NA
ATOM     28  C   UNL     1      45.977   4.978  13.439  0.00  0.00    +0.000 A 
BRANCH  26  29
ATOM     29  C   UNL     1      43.602   3.451  11.046  0.00  0.00    +0.000 C 
BRANCH  29  30
ATOM     30  N   UNL     1      43.878   3.031   9.667  0.00  0.00    +0.000 NA
ATOM     31  H   UNL     1      44.224   3.851   9.168  0.00  0.00    +0.000 HD
BRANCH  30  32
ATOM     32  C   UNL     1      44.904   1.993   9.590  0.00  0.00    +0.000 C 
BRANCH  32  33
ATOM     33  C   UNL     1      45.794   2.219   8.389  0.00  0.00    +0.000 A 
ATOM     34  C   UNL     1      46.596   1.179   7.894  0.00  0.00    +0.000 A 
ATOM     35  C   UNL     1      47.405   1.379   6.775  0.00  0.00    +0.000 A 
ATOM     36  C   UNL     1      47.431   2.623   6.148  0.00  0.00    +0.000 A 
ATOM     37  C   UNL     1      46.665   3.674   6.651  0.00  0.00    +0.000 A 
ATOM     38  C   UNL     1      45.854   3.475   7.770  0.00  0.00    +0.000 A 
ENDBRANCH  32  33
ENDBRANCH  30  32
ENDBRANCH  29  30
ENDBRANCH  26  29
ENDBRANCH  22  23
ENDBRANCH  20  22
ENDBRANCH   2  20
TORSDOF 9
ENDMDL
MODEL 4
REMARK VINA RESULT:    -7.867      1.524      2.528
REMARK INTER + INTRA:         -13.797
REMARK INTER:                 -12.233
REMARK INTRA:                  -1.563
REMARK UNBOUND:                -1.790
REMARK  Name = 
REMARK  12 active torsions:
REMARK  status: ('A' for Active; 'I' for Inactive)
REMARK    1  A    between atoms: C_1  and  C_2
REMARK    2  A    between atoms: C_2  and  N_3
REMARK    3  A    between atoms: C_2  and  C_20
REMARK    4  A    between atoms: N_3  and  C_4
REMARK    5  A    between atoms: C_4  and  C_5
REMARK    6  A    between atoms: C_8  and  C_9
REMARK    7  A    between atoms: C_9  and  N_10
REMARK    8  A    between atoms: N_10  and  C_11
REMARK    9  A    between atoms: C_11  and  C_12
REMARK   10  A    between atoms: C_23  and  C_24
REMARK   11  A    between atoms: N_26  and  C_27
REMARK   12  A    between atoms: N_26  and  C_28
REMARK                            x       y       z     vdW  Elec       q    Type
REMARK                         _______ _______ _______ _____ _____    ______ ____
ROOT
ATOM      1  C   UNL     1      49.491   8.966  14.161  0.00  0.00    +0.000 C 
ATOM      2  C   UNL     1      49.892   7.495  14.389  0.00  0.00    +0.000 C 
ENDROOT
BRANCH   2   3
ATOM      3  C   UNL     1      49.930   7.128  15.885  0.00  0.00    +0.000 A 
ATOM      4  C   UNL     1      48.793   7.492  16.654  0.00  0.00    +0.000 A 
ATOM      5  C   UNL     1      48.559   6.950  17.913  0.00  0.00    +0.000 A 
ATOM      6  C   UNL     1      49.392   5.934  18.364  0.00  0.00    +0.000 A 
ATOM      7  C   UNL     1      50.234   5.349  17.430  0.00  0.00    +0.000 A 
ATOM      8  C   UNL     1      51.032   4.167  17.647  0.00  0.00    +0.000 A 
ATOM      9  O   UNL     1      50.704   3.093  17.141  0.00  0.00    +0.000 OA
ATOM     10  N   UNL     1      52.279   4.483  18.050  0.00  0.00    +0.000 N 
ATOM     11  C   UNL     1      52.840   5.540  17.378  0.00  0.00    +0.000 A 
ATOM     12  N   UNL     1      52.208   6.257  16.460  0.00  0.00    +0.000 NA
ATOM     13  C   UNL     1      50.773   6.128  16.431  0.00  0.00    +0.000 A 
ATOM     14  H   UNL     1      52.413   4.464  19.056  0.00  0.00    +0.000 HD
BRANCH   6  15
ATOM     15  C   UNL     1      49.581   5.605  19.798  0.00  0.00    +0.000 C 
ATOM     16  O   UNL     1      48.967   4.631  20.232  0.00  0.00    +0.000 OA
ATOM     17  N   UNL     1      50.538   6.276  20.584  0.00  0.00    +0.000 N 
ATOM     18  C   UNL     1      51.373   7.415  20.207  0.00  0.00    +0.000 C 
ATOM     19  C   UNL     1      50.638   5.900  21.987  0.00  0.00    +0.000 C 
ENDBRANCH   6  15
ENDBRANCH   2   3
BRANCH   2  20
ATOM     20  N   UNL     1      48.898   6.571  13.798  0.00  0.00    +0.000 NA
ATOM     21  H   UNL     1      49.368   5.972  13.121  0.00  0.00    +0.000 HD
BRANCH  20  22
ATOM     22  C   UNL     1      47.677   7.109  13.230  0.00  0.00    +0.000 C 
BRANCH  22  23
ATOM     23  C   UNL     1      46.733   6.095  12.657  0.00  0.00    +0.000 A 
ATOM     24  C   UNL     1      46.275   6.213  11.346  0.00  0.00    +0.000 A 
ATOM     25  C   UNL     1      45.360   5.293  10.845  0.00  0.00    +0.000 A 
ATOM     26  C   UNL     1      44.920   4.264  11.672  0.00  0.00    +0.000 A 
ATOM     27  N   UNL     1      45.345   4.128  12.954  0.00  0.00    +0.000 NA
ATOM     28  C   UNL     1      46.235   5.040  13.414  0.00  0.00    +0.000 A 
BRANCH  26  29
ATOM     29  C   UNL     1      43.904   3.260  11.156  0.00  0.00    +0.000 C 
BRANCH  29  30
ATOM     30  N   UNL     1      43.902   3.083   9.699  0.00  0.00    +0.000 NA
ATOM     31  H   UNL     1      44.431   3.861   9.303  0.00  0.00    +0.000 HD
BRANCH  30  32
ATOM     32  C   UNL     1      44.550   1.841   9.283  0.00  0.00    +0.000 C 
BRANCH  32  33
ATOM     33  C   UNL     1      45.646   2.127   8.283  0.00  0.00    +0.000 A 
ATOM     34  C   UNL     1      45.747   3.391   7.682  0.00  0.00    +0.000 A 
ATOM     35  C   UNL     1      46.769   3.663   6.772  0.00  0.00    +0.000 A 
ATOM     36  C   UNL     1      47.692   2.672   6.442  0.00  0.00    +0.000 A 
ATOM     37  C   UNL     1      47.581   1.402   7.007  0.00  0.00    +0.000 A 
ATOM     38  C   UNL     1      46.560   1.128   7.919  0.00  0.00    +0.000 A 
ENDBRANCH  32  33
ENDBRANCH  30  32
ENDBRANCH  29  30
ENDBRANCH  26  29
ENDBRANCH  22  23
ENDBRANCH  20  22
ENDBRANCH   2  20
TORSDOF 9
ENDMDL
MODEL 5
REMARK VINA RESULT:    -7.071      2.666      3.804
REMARK INTER + INTRA:         -12.581
REMARK INTER:                 -10.859
REMARK INTRA:                  -1.722
REMARK UNBOUND:                -1.790
REMARK  Name = 
REMARK  12 active torsions:
REMARK  status: ('A' for Active; 'I' for Inactive)
REMARK    1  A    between atoms: C_1  and  C_2
REMARK    2  A    between atoms: C_2  and  N_3
REMARK    3  A    between atoms: C_2  and  C_20
REMARK    4  A    between atoms: N_3  and  C_4
REMARK    5  A    between atoms: C_4  and  C_5
REMARK    6  A    between atoms: C_8  and  C_9
REMARK    7  A    between atoms: C_9  and  N_10
REMARK    8  A    between atoms: N_10  and  C_11
REMARK    9  A    between atoms: C_11  and  C_12
REMARK   10  A    between atoms: C_23  and  C_24
REMARK   11  A    between atoms: N_26  and  C_27
REMARK   12  A    between atoms: N_26  and  C_28
REMARK                            x       y       z     vdW  Elec       q    Type
REMARK                         _______ _______ _______ _____ _____    ______ ____
ROOT
ATOM      1  C   UNL     1      48.489   9.087  13.373  0.00  0.00    +0.000 C 
ATOM      2  C   UNL     1      48.927   7.929  14.292  0.00  0.00    +0.000 C 
ENDROOT
BRANCH   2   3
ATOM      3  C   UNL     1      49.481   8.434  15.638  0.00  0.00    +0.000 A 
ATOM      4  C   UNL     1      50.087   9.717  15.631  0.00  0.00    +0.000 A 
ATOM      5  C   UNL     1      50.335  10.415  16.808  0.00  0.00    +0.000 A 
ATOM      6  C   UNL     1      49.856   9.893  18.003  0.00  0.00    +0.000 A 
ATOM      7  C   UNL     1      48.943   8.853  17.914  0.00  0.00    +0.000 A 
ATOM      8  C   UNL     1      48.191   8.303  19.015  0.00  0.00    +0.000 A 
ATOM      9  O   UNL     1      46.992   8.552  19.137  0.00  0.00    +0.000 OA
ATOM     10  N   UNL     1      48.817   7.237  19.553  0.00  0.00    +0.000 N 
ATOM     11  C   UNL     1      49.360   6.375  18.633  0.00  0.00    +0.000 A 
ATOM     12  N   UNL     1      49.352   6.584  17.324  0.00  0.00    +0.000 NA
ATOM     13  C   UNL     1      49.070   7.931  16.899  0.00  0.00    +0.000 A 
ATOM     14  H   UNL     1      49.388   7.450  20.365  0.00  0.00    +0.000 HD
BRANCH   6  15
ATOM     15  C   UNL     1      50.423  10.230  19.330  0.00  0.00    +0.000 C 
ATOM     16  O   UNL     1      51.327   9.508  19.750  0.00  0.00    +0.000 OA
ATOM     17  N   UNL     1      50.059  11.412  20.006  0.00  0.00    +0.000 N 
ATOM     18  C   UNL     1      49.043  12.390  19.622  0.00  0.00    +0.000 C 
ATOM     19  C   UNL     1      50.653  11.648  21.314  0.00  0.00    +0.000 C 
ENDBRANCH   6  15
ENDBRANCH   2   3
BRANCH   2  20
ATOM     20  N   UNL     1      47.778   7.069  14.655  0.00  0.00    +0.000 NA
ATOM     21  H   UNL     1      47.666   7.079  15.667  0.00  0.00    +0.000 HD
BRANCH  20  22
ATOM     22  C   UNL     1      47.724   5.707  14.157  0.00  0.00    +0.000 C 
BRANCH  22  23
ATOM     23  C   UNL     1      46.691   5.449  13.102  0.00  0.00    +0.000 A 
ATOM     24  C   UNL     1      46.558   6.309  12.013  0.00  0.00    +0.000 A 
ATOM     25  C   UNL     1      45.561   6.085  11.069  0.00  0.00    +0.000 A 
ATOM     26  C   UNL     1      44.711   4.995  11.235  0.00  0.00    +0.000 A 
ATOM     27  N   UNL     1      44.814   4.145  12.289  0.00  0.00    +0.000 NA
ATOM     28  C   UNL     1      45.794   4.390  13.191  0.00  0.00    +0.000 A 
BRANCH  26  29
ATOM     29  C   UNL     1      43.600   4.742  10.232  0.00  0.00    +0.000 C 
BRANCH  29  30
ATOM     30  N   UNL     1      44.045   4.171   8.955  0.00  0.00    +0.000 NA
ATOM     31  H   UNL     1      44.783   4.778   8.597  0.00  0.00    +0.000 HD
BRANCH  30  32
ATOM     32  C   UNL     1      44.600   2.828   9.104  0.00  0.00    +0.000 C 
BRANCH  32  33
ATOM     33  C   UNL     1      45.677   2.584   8.072  0.00  0.00    +0.000 A 
ATOM     34  C   UNL     1      46.384   1.372   8.055  0.00  0.00    +0.000 A 
ATOM     35  C   UNL     1      47.366   1.138   7.093  0.00  0.00    +0.000 A 
ATOM     36  C   UNL     1      47.662   2.117   6.146  0.00  0.00    +0.000 A 
ATOM     37  C   UNL     1      46.990   3.338   6.173  0.00  0.00    +0.000 A 
ATOM     38  C   UNL     1      46.006   3.574   7.135  0.00  0.00    +0.000 A 
ENDBRANCH  32  33
ENDBRANCH  30  32
ENDBRANCH  29  30
ENDBRANCH  26  29
ENDBRANCH  22  23
ENDBRANCH  20  22
ENDBRANCH   2  20
TORSDOF 9
ENDMDL
MODEL 6
REMARK VINA RESULT:    -7.067      1.815      3.038
REMARK INTER + INTRA:         -12.575
REMARK INTER:                 -11.368
REMARK INTRA:                  -1.207
REMARK UNBOUND:                -1.790
REMARK  Name = 
REMARK  12 active torsions:
REMARK  status: ('A' for Active; 'I' for Inactive)
REMARK    1  A    between atoms: C_1  and  C_2
REMARK    2  A    between atoms: C_2  and  N_3
REMARK    3  A    between atoms: C_2  and  C_20
REMARK    4  A    between atoms: N_3  and  C_4
REMARK    5  A    between atoms: C_4  and  C_5
REMARK    6  A    between atoms: C_8  and  C_9
REMARK    7  A    between atoms: C_9  and  N_10
REMARK    8  A    between atoms: N_10  and  C_11
REMARK    9  A    between atoms: C_11  and  C_12
REMARK   10  A    between atoms: C_23  and  C_24
REMARK   11  A    between atoms: N_26  and  C_27
REMARK   12  A    between atoms: N_26  and  C_28
REMARK                            x       y       z     vdW  Elec       q    Type
REMARK                         _______ _______ _______ _____ _____    ______ ____
ROOT
ATOM      1  C   UNL     1      48.924   7.236  12.471  0.00  0.00    +0.000 C 
ATOM      2  C   UNL     1      47.929   6.947  13.613  0.00  0.00    +0.000 C 
ENDROOT
BRANCH   2   3
ATOM      3  C   UNL     1      48.625   6.877  14.986  0.00  0.00    +0.000 A 
ATOM      4  C   UNL     1      48.322   5.747  15.790  0.00  0.00    +0.000 A 
ATOM      5  C   UNL     1      49.103   5.400  16.887  0.00  0.00    +0.000 A 
ATOM      6  C   UNL     1      50.279   6.105  17.114  0.00  0.00    +0.000 A 
ATOM      7  C   UNL     1      50.726   6.928  16.091  0.00  0.00    +0.000 A 
ATOM      8  C   UNL     1      52.007   7.593  16.051  0.00  0.00    +0.000 A 
ATOM      9  O   UNL     1      52.897   7.185  15.306  0.00  0.00    +0.000 OA
ATOM     10  N   UNL     1      51.925   8.844  16.546  0.00  0.00    +0.000 N 
ATOM     11  C   UNL     1      50.811   9.540  16.145  0.00  0.00    +0.000 A 
ATOM     12  N   UNL     1      49.843   9.027  15.400  0.00  0.00    +0.000 NA
ATOM     13  C   UNL     1      49.807   7.589  15.309  0.00  0.00    +0.000 A 
ATOM     14  H   UNL     1      52.183   8.929  17.523  0.00  0.00    +0.000 HD
BRANCH   6  15
ATOM     15  C   UNL     1      50.939   6.192  18.438  0.00  0.00    +0.000 C 
ATOM     16  O   UNL     1      50.489   7.019  19.232  0.00  0.00    +0.000 OA
ATOM     17  N   UNL     1      51.927   5.267  18.828  0.00  0.00    +0.000 N 
ATOM     18  C   UNL     1      52.533   4.207  18.025  0.00  0.00    +0.000 C 
ATOM     19  C   UNL     1      52.533   5.445  20.140  0.00  0.00    +0.000 C 
ENDBRANCH   6  15
ENDBRANCH   2   3
BRANCH   2  20
ATOM     20  N   UNL     1      46.937   8.037  13.747  0.00  0.00    +0.000 NA
ATOM     21  H   UNL     1      46.635   8.089  14.718  0.00  0.00    +0.000 HD
BRANCH  20  22
ATOM     22  C   UNL     1      45.786   8.063  12.863  0.00  0.00    +0.000 C 
BRANCH  22  23
ATOM     23  C   UNL     1      45.296   6.722  12.407  0.00  0.00    +0.000 A 
ATOM     24  C   UNL     1      45.389   6.350  11.067  0.00  0.00    +0.000 A 
ATOM     25  C   UNL     1      44.883   5.123  10.650  0.00  0.00    +0.000 A 
ATOM     26  C   UNL     1      44.290   4.286  11.590  0.00  0.00    +0.000 A 
ATOM     27  N   UNL     1      44.180   4.625  12.900  0.00  0.00    +0.000 NA
ATOM     28  C   UNL     1      44.681   5.826  13.276  0.00  0.00    +0.000 A 
BRANCH  26  29
ATOM     29  C   UNL     1      43.708   2.952  11.157  0.00  0.00    +0.000 C 
BRANCH  29  30
ATOM     30  N   UNL     1      44.505   2.232  10.156  0.00  0.00    +0.000 NA
ATOM     31  H   UNL     1      44.222   1.253  10.198  0.00  0.00    +0.000 HD
BRANCH  30  32
ATOM     32  C   UNL     1      44.267   2.711   8.797  0.00  0.00    +0.000 C 
BRANCH  32  33
ATOM     33  C   UNL     1      45.496   2.506   7.942  0.00  0.00    +0.000 A 
ATOM     34  C   UNL     1      46.275   1.348   8.086  0.00  0.00    +0.000 A 
ATOM     35  C   UNL     1      47.401   1.147   7.285  0.00  0.00    +0.000 A 
ATOM     36  C   UNL     1      47.766   2.107   6.343  0.00  0.00    +0.000 A 
ATOM     37  C   UNL     1      47.020   3.278   6.215  0.00  0.00    +0.000 A 
ATOM     38  C   UNL     1      45.893   3.479   7.014  0.00  0.00    +0.000 A 
ENDBRANCH  32  33
ENDBRANCH  30  32
ENDBRANCH  29  30
ENDBRANCH  26  29
ENDBRANCH  22  23
ENDBRANCH  20  22
ENDBRANCH   2  20
TORSDOF 9
ENDMDL
MODEL 7
REMARK VINA RESULT:    -6.961      2.263      2.810
REMARK INTER + INTRA:         -12.414
REMARK INTER:                 -11.070
REMARK INTRA:                  -1.344
REMARK UNBOUND:                -1.790
REMARK  Name = 
REMARK  12 active torsions:
REMARK  status: ('A' for Active; 'I' for Inactive)
REMARK    1  A    between atoms: C_1  and  C_2
REMARK    2  A    between atoms: C_2  and  N_3
REMARK    3  A    between atoms: C_2  and  C_20
REMARK    4  A    between atoms: N_3  and  C_4
REMARK    5  A    between atoms: C_4  and  C_5
REMARK    6  A    between atoms: C_8  and  C_9
REMARK    7  A    between atoms: C_9  and  N_10
REMARK    8  A    between atoms: N_10  and  C_11
REMARK    9  A    between atoms: C_11  and  C_12
REMARK   10  A    between atoms: C_23  and  C_24
REMARK   11  A    between atoms: N_26  and  C_27
REMARK   12  A    between atoms: N_26  and  C_28
REMARK                            x       y       z     vdW  Elec       q    Type
REMARK                         _______ _______ _______ _____ _____    ______ ____
ROOT
ATOM      1  C   UNL     1      48.737   9.043  13.683  0.00  0.00    +0.000 C 
ATOM      2  C   UNL     1      49.783   7.910  13.643  0.00  0.00    +0.000 C 
ENDROOT
BRANCH   2   3
ATOM      3  C   UNL     1      50.497   7.729  14.996  0.00  0.00    +0.000 A 
ATOM      4  C   UNL     1      51.916   7.720  14.964  0.00  0.00    +0.000 A 
ATOM      5  C   UNL     1      52.674   7.884  16.118  0.00  0.00    +0.000 A 
ATOM      6  C   UNL     1      52.019   8.195  17.304  0.00  0.00    +0.000 A 
ATOM      7  C   UNL     1      50.689   8.576  17.207  0.00  0.00    +0.000 A 
ATOM      8  C   UNL     1      49.892   9.113  18.283  0.00  0.00    +0.000 A 
ATOM      9  O   UNL     1      49.613  10.312  18.313  0.00  0.00    +0.000 OA
ATOM     10  N   UNL     1      49.200   8.143  18.913  0.00  0.00    +0.000 N 
ATOM     11  C   UNL     1      48.632   7.216  18.074  0.00  0.00    +0.000 A 
ATOM     12  N   UNL     1      48.796   7.205  16.759  0.00  0.00    +0.000 NA
ATOM     13  C   UNL     1      49.890   7.992  16.249  0.00  0.00    +0.000 A 
ATOM     14  H   UNL     1      49.648   7.782  19.748  0.00  0.00    +0.000 HD
BRANCH   6  15
ATOM     15  C   UNL     1      52.588   7.930  18.647  0.00  0.00    +0.000 C 
ATOM     16  O   UNL     1      53.086   8.888  19.240  0.00  0.00    +0.000 OA
ATOM     17  N   UNL     1      52.423   6.684  19.282  0.00  0.00    +0.000 N 
ATOM     18  C   UNL     1      51.819   5.470  18.735  0.00  0.00    +0.000 C 
ATOM     19  C   UNL     1      53.034   6.510  20.592  0.00  0.00    +0.000 C 
ENDBRANCH   6  15
ENDBRANCH   2   3
BRANCH   2  20
ATOM     20  N   UNL     1      49.145   6.602  13.374  0.00  0.00    +0.000 NA
ATOM     21  H   UNL     1      49.085   6.465  12.367  0.00  0.00    +0.000 HD
BRANCH  20  22
ATOM     22  C   UNL     1      47.873   6.289  13.999  0.00  0.00    +0.000 C 
BRANCH  22  23
ATOM     23  C   UNL     1      46.765   5.928  13.056  0.00  0.00    +0.000 A 
ATOM     24  C   UNL     1      46.743   6.437  11.758  0.00  0.00    +0.000 A 
ATOM     25  C   UNL     1      45.682   6.133  10.911  0.00  0.00    +0.000 A 
ATOM     26  C   UNL     1      44.658   5.318  11.383  0.00  0.00    +0.000 A 
ATOM     27  N   UNL     1      44.651   4.813  12.643  0.00  0.00    +0.000 NA
ATOM     28  C   UNL     1      45.697   5.127  13.445  0.00  0.00    +0.000 A 
BRANCH  26  29
ATOM     29  C   UNL     1      43.477   4.992  10.486  0.00  0.00    +0.000 C 
BRANCH  29  30
ATOM     30  N   UNL     1      43.831   4.345   9.217  0.00  0.00    +0.000 NA
ATOM     31  H   UNL     1      44.547   4.924   8.777  0.00  0.00    +0.000 HD
BRANCH  30  32
ATOM     32  C   UNL     1      44.387   3.007   9.404  0.00  0.00    +0.000 C 
BRANCH  32  33
ATOM     33  C   UNL     1      45.491   2.750   8.404  0.00  0.00    +0.000 A 
ATOM     34  C   UNL     1      45.932   3.775   7.554  0.00  0.00    +0.000 A 
ATOM     35  C   UNL     1      46.963   3.546   6.642  0.00  0.00    +0.000 A 
ATOM     36  C   UNL     1      47.554   2.286   6.561  0.00  0.00    +0.000 A 
ATOM     37  C   UNL     1      47.101   1.250   7.376  0.00  0.00    +0.000 A 
ATOM     38  C   UNL     1      46.070   1.478   8.290  0.00  0.00    +0.000 A 
ENDBRANCH  32  33
ENDBRANCH  30  32
ENDBRANCH  29  30
ENDBRANCH  26  29
ENDBRANCH  22  23
ENDBRANCH  20  22
ENDBRANCH   2  20
TORSDOF 9
ENDMDL
MODEL 8
REMARK VINA RESULT:    -6.926      2.205      3.490
REMARK INTER + INTRA:         -12.360
REMARK INTER:                 -10.586
REMARK INTRA:                  -1.774
REMARK UNBOUND:                -1.790
REMARK  Name = 
REMARK  12 active torsions:
REMARK  status: ('A' for Active; 'I' for Inactive)
REMARK    1  A    between atoms: C_1  and  C_2
REMARK    2  A    between atoms: C_2  and  N_3
REMARK    3  A    between atoms: C_2  and  C_20
REMARK    4  A    between atoms: N_3  and  C_4
REMARK    5  A    between atoms: C_4  and  C_5
REMARK    6  A    between atoms: C_8  and  C_9
REMARK    7  A    between atoms: C_9  and  N_10
REMARK    8  A    between atoms: N_10  and  C_11
REMARK    9  A    between atoms: C_11  and  C_12
REMARK   10  A    between atoms: C_23  and  C_24
REMARK   11  A    between atoms: N_26  and  C_27
REMARK   12  A    between atoms: N_26  and  C_28
REMARK                            x       y       z     vdW  Elec       q    Type
REMARK                         _______ _______ _______ _____ _____    ______ ____
ROOT
ATOM      1  C   UNL     1      50.412   8.978  12.927  0.00  0.00    +0.000 C 
ATOM      2  C   UNL     1      50.341   7.644  13.696  0.00  0.00    +0.000 C 
ENDROOT
BRANCH   2   3
ATOM      3  C   UNL     1      50.285   7.855  15.221  0.00  0.00    +0.000 A 
ATOM      4  C   UNL     1      49.999   9.172  15.667  0.00  0.00    +0.000 A 
ATOM      5  C   UNL     1      49.609   9.432  16.976  0.00  0.00    +0.000 A 
ATOM      6  C   UNL     1      49.370   8.357  17.824  0.00  0.00    +0.000 A 
ATOM      7  C   UNL     1      49.283   7.103  17.240  0.00  0.00    +0.000 A 
ATOM      8  C   UNL     1      48.859   5.896  17.908  0.00  0.00    +0.000 A 
ATOM      9  O   UNL     1      47.746   5.420  17.687  0.00  0.00    +0.000 OA
ATOM     10  N   UNL     1      49.913   5.208  18.393  0.00  0.00    +0.000 N 
ATOM     11  C   UNL     1      50.988   5.145  17.540  0.00  0.00    +0.000 A 
ATOM     12  N   UNL     1      51.044   5.761  16.369  0.00  0.00    +0.000 NA
ATOM     13  C   UNL     1      50.079   6.808  16.155  0.00  0.00    +0.000 A 
ATOM     14  H   UNL     1      50.120   5.388  19.369  0.00  0.00    +0.000 HD
BRANCH   6  15
ATOM     15  C   UNL     1      49.427   8.452  19.302  0.00  0.00    +0.000 C 
ATOM     16  O   UNL     1      50.475   8.102  19.844  0.00  0.00    +0.000 OA
ATOM     17  N   UNL     1      48.393   9.063  20.039  0.00  0.00    +0.000 N 
ATOM     18  C   UNL     1      47.114   9.568  19.543  0.00  0.00    +0.000 C 
ATOM     19  C   UNL     1      48.526   9.091  21.488  0.00  0.00    +0.000 C 
ENDBRANCH   6  15
ENDBRANCH   2   3
BRANCH   2  20
ATOM     20  N   UNL     1      49.102   6.903  13.371  0.00  0.00    +0.000 NA
ATOM     21  H   UNL     1      49.278   6.303  12.568  0.00  0.00    +0.000 HD
BRANCH  20  22
ATOM     22  C   UNL     1      47.863   7.636  13.188  0.00  0.00    +0.000 C 
BRANCH  22  23
ATOM     23  C   UNL     1      46.626   6.794  13.097  0.00  0.00    +0.000 A 
ATOM     24  C   UNL     1      46.605   5.503  13.622  0.00  0.00    +0.000 A 
ATOM     25  C   UNL     1      45.467   4.716  13.484  0.00  0.00    +0.000 A 
ATOM     26  C   UNL     1      44.362   5.241  12.820  0.00  0.00    +0.000 A 
ATOM     27  N   UNL     1      44.357   6.493  12.295  0.00  0.00    +0.000 NA
ATOM     28  C   UNL     1      45.480   7.235  12.443  0.00  0.00    +0.000 A 
BRANCH  26  29
ATOM     29  C   UNL     1      43.116   4.394  12.636  0.00  0.00    +0.000 C 
BRANCH  29  30
ATOM     30  N   UNL     1      42.991   3.767  11.315  0.00  0.00    +0.000 NA
ATOM     31  H   UNL     1      43.146   4.499  10.621  0.00  0.00    +0.000 HD
BRANCH  30  32
ATOM     32  C   UNL     1      43.985   2.719  11.093  0.00  0.00    +0.000 C 
BRANCH  32  33
ATOM     33  C   UNL     1      44.784   3.006   9.843  0.00  0.00    +0.000 A 
ATOM     34  C   UNL     1      45.260   1.952   9.048  0.00  0.00    +0.000 A 
ATOM     35  C   UNL     1      45.983   2.214   7.884  0.00  0.00    +0.000 A 
ATOM     36  C   UNL     1      46.250   3.530   7.509  0.00  0.00    +0.000 A 
ATOM     37  C   UNL     1      45.812   4.584   8.310  0.00  0.00    +0.000 A 
ATOM     38  C   UNL     1      45.087   4.324   9.475  0.00  0.00    +0.000 A 
ENDBRANCH  32  33
ENDBRANCH  30  32
ENDBRANCH  29  30
ENDBRANCH  26  29
ENDBRANCH  22  23
ENDBRANCH  20  22
ENDBRANCH   2  20
TORSDOF 9
ENDMDL
MODEL 9
REMARK VINA RESULT:    -6.479      2.397      3.625
REMARK INTER + INTRA:         -11.678
REMARK INTER:                 -10.723
REMARK INTRA:                  -0.955
REMARK UNBOUND:                -1.790
REMARK  Name = 
REMARK  12 active torsions:
REMARK  status: ('A' for Active; 'I' for Inactive)
REMARK    1  A    between atoms: C_1  and  C_2
REMARK    2  A    between atoms: C_2  and  N_3
REMARK    3  A    between atoms: C_2  and  C_20
REMARK    4  A    between atoms: N_3  and  C_4
REMARK    5  A    between atoms: C_4  and  C_5
REMARK    6  A    between atoms: C_8  and  C_9
REMARK    7  A    between atoms: C_9  and  N_10
REMARK    8  A    between atoms: N_10  and  C_11
REMARK    9  A    between atoms: C_11  and  C_12
REMARK   10  A    between atoms: C_23  and  C_24
REMARK   11  A    between atoms: N_26  and  C_27
REMARK   12  A    between atoms: N_26  and  C_28
REMARK                            x       y       z     vdW  Elec       q    Type
REMARK                         _______ _______ _______ _____ _____    ______ ____
ROOT
ATOM      1  C   UNL     1      47.078   8.902  13.059  0.00  0.00    +0.000 C 
ATOM      2  C   UNL     1      48.486   8.326  13.310  0.00  0.00    +0.000 C 
ENDROOT
BRANCH   2   3
ATOM      3  C   UNL     1      49.004   8.652  14.724  0.00  0.00    +0.000 A 
ATOM      4  C   UNL     1      48.228   9.563  15.487  0.00  0.00    +0.000 A 
ATOM      5  C   UNL     1      48.397   9.695  16.861  0.00  0.00    +0.000 A 
ATOM      6  C   UNL     1      49.257   8.819  17.511  0.00  0.00    +0.000 A 
ATOM      7  C   UNL     1      49.685   7.711  16.796  0.00  0.00    +0.000 A 
ATOM      8  C   UNL     1      50.421   6.596  17.341  0.00  0.00    +0.000 A 
ATOM      9  O   UNL     1      49.863   5.515  17.530  0.00  0.00    +0.000 OA
ATOM     10  N   UNL     1      51.750   6.765  17.193  0.00  0.00    +0.000 N 
ATOM     11  C   UNL     1      52.124   7.263  15.970  0.00  0.00    +0.000 A 
ATOM     12  N   UNL     1      51.272   7.628  15.024  0.00  0.00    +0.000 NA
ATOM     13  C   UNL     1      49.908   7.829  15.442  0.00  0.00    +0.000 A 
ATOM     14  H   UNL     1      52.217   7.157  18.003  0.00  0.00    +0.000 HD
BRANCH   6  15
ATOM     15  C   UNL     1      49.899   9.117  18.814  0.00  0.00    +0.000 C 
ATOM     16  O   UNL     1      49.400   8.599  19.813  0.00  0.00    +0.000 OA
ATOM     17  N   UNL     1      51.113   9.827  18.889  0.00  0.00    +0.000 N 
ATOM     18  C   UNL     1      51.851  10.463  17.799  0.00  0.00    +0.000 C 
ATOM     19  C   UNL     1      51.657  10.090  20.213  0.00  0.00    +0.000 C 
ENDBRANCH   6  15
ENDBRANCH   2   3
BRANCH   2  20
ATOM     20  N   UNL     1      48.480   6.848  13.241  0.00  0.00    +0.000 NA
ATOM     21  H   UNL     1      48.336   6.564  12.274  0.00  0.00    +0.000 HD
BRANCH  20  22
ATOM     22  C   UNL     1      47.602   6.098  14.120  0.00  0.00    +0.000 C 
BRANCH  22  23
ATOM     23  C   UNL     1      46.568   5.259  13.432  0.00  0.00    +0.000 A 
ATOM     24  C   UNL     1      45.471   5.852  12.811  0.00  0.00    +0.000 A 
ATOM     25  C   UNL     1      44.493   5.056  12.221  0.00  0.00    +0.000 A 
ATOM     26  C   UNL     1      44.637   3.673  12.264  0.00  0.00    +0.000 A 
ATOM     27  N   UNL     1      45.692   3.069  12.866  0.00  0.00    +0.000 NA
ATOM     28  C   UNL     1      46.626   3.869  13.433  0.00  0.00    +0.000 A 
BRANCH  26  29
ATOM     29  C   UNL     1      43.572   2.782  11.648  0.00  0.00    +0.000 C 
BRANCH  29  30
ATOM     30  N   UNL     1      43.652   2.650  10.188  0.00  0.00    +0.000 NA
ATOM     31  H   UNL     1      42.709   2.784   9.824  0.00  0.00    +0.000 HD
BRANCH  30  32
ATOM     32  C   UNL     1      44.516   3.659   9.579  0.00  0.00    +0.000 C 
BRANCH  32  33
ATOM     33  C   UNL     1      45.470   3.016   8.600  0.00  0.00    +0.000 A 
ATOM     34  C   UNL     1      46.121   3.792   7.628  0.00  0.00    +0.000 A 
ATOM     35  C   UNL     1      47.016   3.204   6.734  0.00  0.00    +0.000 A 
ATOM     36  C   UNL     1      47.260   1.833   6.792  0.00  0.00    +0.000 A 
ATOM     37  C   UNL     1      46.593   1.046   7.730  0.00  0.00    +0.000 A 
ATOM     38  C   UNL     1      45.699   1.633   8.627  0.00  0.00    +0.000 A 
ENDBRANCH  32  33
ENDBRANCH  30  32
ENDBRANCH  29  30
ENDBRANCH  26  29
ENDBRANCH  22  23
ENDBRANCH  20  22
ENDBRANCH   2  20
TORSDOF 9
ENDMDL
