MODEL 1
REMARK VINA RESULT:    -8.122      0.000      0.000
REMARK INTER + INTRA:         -11.701
REMARK INTER:                 -10.971
REMARK INTRA:                  -0.729
REMARK UNBOUND:                -0.729
REMARK  Name = 
REMARK  7 active torsions:
REMARK  status: ('A' for Active; 'I' for Inactive)
REMARK    1  A    between atoms: C_1  and  C_2
REMARK    2  A    between atoms: N_4  and  C_5
REMARK    3  A    between atoms: C_9  and  C_10
REMARK    4  A    between atoms: C_10  and  C_11
REMARK    5  A    between atoms: C_11  and  N_12
REMARK    6  A    between atoms: N_12  and  C_13
REMARK    7  A    between atoms: C_16  and  C_17
REMARK                            x       y       z     vdW  Elec       q    Type
REMARK                         _______ _______ _______ _____ _____    ______ ____
ROOT
ATOM      1  C   UNL     1      44.888   4.451  12.285  0.00  0.00    +0.000 C 
ENDROOT
BRANCH   1   6
ATOM      2  C   UNL     1      47.405   5.083  15.111  0.00  0.00    +0.000 A 
ATOM      3  C   UNL     1      48.122   6.150  14.554  0.00  0.00    +0.000 A 
ATOM      4  C   UNL     1      47.811   6.672  13.293  0.00  0.00    +0.000 A 
ATOM      5  C   UNL     1      46.759   6.140  12.554  0.00  0.00    +0.000 A 
ATOM      6  C   UNL     1      46.015   5.079  13.072  0.00  0.00    +0.000 A 
ATOM      7  C   UNL     1      46.358   4.562  14.336  0.00  0.00    +0.000 A 
BRANCH   2  11
ATOM      8  C   UNL     1      50.691   5.419  17.068  0.00  0.00    +0.000 C 
ATOM      9  C   UNL     1      49.561   4.957  17.995  0.00  0.00    +0.000 C 
ATOM     10  C   UNL     1      48.168   5.404  17.477  0.00  0.00    +0.000 C 
ATOM     11  N   UNL     1      47.716   4.572  16.352  0.00  0.00    +0.000 N 
ATOM     12  C   UNL     1      47.744   3.127  16.619  0.00  0.00    +0.000 C 
ATOM     13  C   UNL     1      49.144   2.709  17.130  0.00  0.00    +0.000 C 
ATOM     14  N   UNL     1      49.646   3.503  18.270  0.00  0.00    +0.000 NA
ATOM     15  H   UNL     1      50.615   3.246  18.451  0.00  0.00    +0.000 HD
ENDBRANCH   2  11
ENDBRANCH   1   6
BRANCH   1  16
ATOM     16  C   UNL     1      44.384   5.406  11.200  0.00  0.00    +0.000 C 
BRANCH  16  17
ATOM     17  N   UNL     1      43.797   4.675  10.067  0.00  0.00    +0.000 N 
ATOM     18  H   UNL     1      43.169   5.259   9.516  0.00  0.00    +0.000 HD
BRANCH  17  19
ATOM     19  C   UNL     1      44.704   3.979   9.246  0.00  0.00    +0.000 A 
ATOM     20  C   UNL     1      45.642   4.626   8.437  0.00  0.00    +0.000 A 
ATOM     21  C   UNL     1      46.542   3.899   7.660  0.00  0.00    +0.000 A 
ATOM     22  C   UNL     1      46.508   2.518   7.743  0.00  0.00    +0.000 A 
ATOM     23  N   UNL     1      45.663   1.829   8.557  0.00  0.00    +0.000 NA
ATOM     24  C   UNL     1      44.805   2.583   9.294  0.00  0.00    +0.000 A 
BRANCH  22  25
ATOM     25  C   UNL     1      47.453   1.717   6.902  0.00  0.00    +0.000 C 
ATOM     26  N   UNL     1      48.527   2.407   6.408  0.00  0.00    +0.000 N 
ATOM     27  O   UNL     1      47.288   0.528   6.668  0.00  0.00    +0.000 OA
ATOM     28  H   UNL     1      48.623   3.394   6.614  0.00  0.00    +0.000 HD
ATOM     29  H   UNL     1      49.197   1.929   5.824  0.00  0.00    +0.000 HD
ENDBRANCH  22  25
ENDBRANCH  17  19
ENDBRANCH  16  17
ENDBRANCH   1  16
TORSDOF 6
ENDMDL
MODEL 2
REMARK VINA RESULT:    -8.062      2.667      3.692
REMARK INTER + INTRA:         -11.620
REMARK INTER:                 -10.635
REMARK INTRA:                  -0.984
REMARK UNBOUND:                -0.729
REMARK  Name = 
REMARK  7 active torsions:
REMARK  status: ('A' for Active; 'I' for Inactive)
REMARK    1  A    between atoms: C_1  and  C_2
REMARK    2  A    between atoms: N_4  and  C_5
REMARK    3  A    between atoms: C_9  and  C_10
REMARK    4  A    between atoms: C_10  and  C_11
REMARK    5  A    between atoms: C_11  and  N_12
REMARK    6  A    between atoms: N_12  and  C_13
REMARK    7  A    between atoms: C_16  and  C_17
REMARK                            x       y       z     vdW  Elec       q    Type
REMARK                         _______ _______ _______ _____ _____    ______ ____
ROOT
ATOM      1  C   UNL     1      43.365   4.868  12.537  0.00  0.00    +0.000 C 
ENDROOT
BRANCH   1   6
ATOM      2  C   UNL     1      46.707   6.632  13.200  0.00  0.00    +0.000 A 
ATOM      3  C   UNL     1      47.483   5.530  13.582  0.00  0.00    +0.000 A 
ATOM      4  C   UNL     1      46.957   4.234  13.627  0.00  0.00    +0.000 A 
ATOM      5  C   UNL     1      45.629   4.004  13.279  0.00  0.00    +0.000 A 
ATOM      6  C   UNL     1      44.820   5.073  12.887  0.00  0.00    +0.000 A 
ATOM      7  C   UNL     1      45.370   6.368  12.866  0.00  0.00    +0.000 A 
BRANCH   2  11
ATOM      8  C   UNL     1      49.923   7.829  11.477  0.00  0.00    +0.000 C 
ATOM      9  C   UNL     1      49.023   9.022  11.821  0.00  0.00    +0.000 C 
ATOM     10  C   UNL     1      47.528   8.614  11.905  0.00  0.00    +0.000 C 
ATOM     11  N   UNL     1      47.230   7.906  13.158  0.00  0.00    +0.000 N 
ATOM     12  C   UNL     1      47.655   8.618  14.371  0.00  0.00    +0.000 C 
ATOM     13  C   UNL     1      49.148   9.008  14.261  0.00  0.00    +0.000 C 
ATOM     14  N   UNL     1      49.506   9.736  13.027  0.00  0.00    +0.000 NA
ATOM     15  H   UNL     1      50.519   9.834  12.982  0.00  0.00    +0.000 HD
ENDBRANCH   2  11
ENDBRANCH   1   6
BRANCH   1  16
ATOM     16  C   UNL     1      43.222   3.981  11.297  0.00  0.00    +0.000 C 
BRANCH  16  17
ATOM     17  N   UNL     1      43.682   4.672  10.083  0.00  0.00    +0.000 N 
ATOM     18  H   UNL     1      44.017   5.614  10.279  0.00  0.00    +0.000 HD
BRANCH  17  19
ATOM     19  C   UNL     1      44.589   3.961   9.275  0.00  0.00    +0.000 A 
ATOM     20  C   UNL     1      45.488   4.593   8.411  0.00  0.00    +0.000 A 
ATOM     21  C   UNL     1      46.390   3.853   7.648  0.00  0.00    +0.000 A 
ATOM     22  C   UNL     1      46.398   2.478   7.799  0.00  0.00    +0.000 A 
ATOM     23  N   UNL     1      45.593   1.807   8.668  0.00  0.00    +0.000 NA
ATOM     24  C   UNL     1      44.731   2.572   9.389  0.00  0.00    +0.000 A 
BRANCH  22  25
ATOM     25  C   UNL     1      47.344   1.663   6.975  0.00  0.00    +0.000 C 
ATOM     26  N   UNL     1      48.439   2.334   6.503  0.00  0.00    +0.000 N 
ATOM     27  O   UNL     1      47.164   0.476   6.736  0.00  0.00    +0.000 OA
ATOM     28  H   UNL     1      48.548   3.319   6.712  0.00  0.00    +0.000 HD
ATOM     29  H   UNL     1      49.112   1.846   5.931  0.00  0.00    +0.000 HD
ENDBRANCH  22  25
ENDBRANCH  17  19
ENDBRANCH  16  17
ENDBRANCH   1  16
TORSDOF 6
ENDMDL
MODEL 3
REMARK VINA RESULT:    -7.356      2.833      3.593
REMARK INTER + INTRA:         -10.666
REMARK INTER:                  -9.779
REMARK INTRA:                  -0.887
REMARK UNBOUND:                -0.729
REMARK  Name = 
REMARK  7 active torsions:
REMARK  status: ('A' for Active; 'I' for Inactive)
REMARK    1  A    between atoms: C_1  and  C_2
REMARK    2  A    between atoms: N_4  and  C_5
REMARK    3  A    between atoms: C_9  and  C_10
REMARK    4  A    between atoms: C_10  and  C_11
REMARK    5  A    between atoms: C_11  and  N_12
REMARK    6  A    between atoms: N_12  and  C_13
REMARK    7  A    between atoms: C_16  and  C_17
REMARK                            x       y       z     vdW  Elec       q    Type
REMARK                         _______ _______ _______ _____ _____    ______ ____
ROOT
ATOM      1  C   UNL     1      43.687   6.338  11.226  0.00  0.00    +0.000 C 
ENDROOT
BRANCH   1   6
ATOM      2  C   UNL     1      47.085   7.830  12.199  0.00  0.00    +0.000 A 
ATOM      3  C   UNL     1      46.756   9.192  12.190  0.00  0.00    +0.000 A 
ATOM      4  C   UNL     1      45.466   9.639  11.883  0.00  0.00    +0.000 A 
ATOM      5  C   UNL     1      44.460   8.725  11.581  0.00  0.00    +0.000 A 
ATOM      6  C   UNL     1      44.743   7.358  11.583  0.00  0.00    +0.000 A 
ATOM      7  C   UNL     1      46.052   6.935  11.880  0.00  0.00    +0.000 A 
BRANCH   2  11
ATOM      8  C   UNL     1      49.404   9.028  15.015  0.00  0.00    +0.000 C 
ATOM      9  C   UNL     1      49.893   7.689  14.452  0.00  0.00    +0.000 C 
ATOM     10  C   UNL     1      48.737   6.869  13.821  0.00  0.00    +0.000 C 
ATOM     11  N   UNL     1      48.357   7.394  12.501  0.00  0.00    +0.000 N 
ATOM     12  C   UNL     1      49.478   7.539  11.563  0.00  0.00    +0.000 C 
ATOM     13  C   UNL     1      50.613   8.363  12.216  0.00  0.00    +0.000 C 
ATOM     14  N   UNL     1      51.047   7.874  13.540  0.00  0.00    +0.000 NA
ATOM     15  H   UNL     1      51.697   8.545  13.945  0.00  0.00    +0.000 HD
ENDBRANCH   2  11
ENDBRANCH   1   6
BRANCH   1  16
ATOM     16  C   UNL     1      44.183   4.918  11.512  0.00  0.00    +0.000 C 
BRANCH  16  17
ATOM     17  N   UNL     1      43.692   3.962  10.509  0.00  0.00    +0.000 N 
ATOM     18  H   UNL     1      42.804   4.253  10.101  0.00  0.00    +0.000 HD
BRANCH  17  19
ATOM     19  C   UNL     1      44.614   3.583   9.515  0.00  0.00    +0.000 A 
ATOM     20  C   UNL     1      45.324   4.512   8.749  0.00  0.00    +0.000 A 
ATOM     21  C   UNL     1      46.249   4.096   7.794  0.00  0.00    +0.000 A 
ATOM     22  C   UNL     1      46.476   2.738   7.652  0.00  0.00    +0.000 A 
ATOM     23  N   UNL     1      45.865   1.786   8.409  0.00  0.00    +0.000 NA
ATOM     24  C   UNL     1      44.971   2.242   9.327  0.00  0.00    +0.000 A 
BRANCH  22  25
ATOM     25  C   UNL     1      47.451   2.269   6.619  0.00  0.00    +0.000 C 
ATOM     26  N   UNL     1      47.501   3.020   5.476  0.00  0.00    +0.000 N 
ATOM     27  O   UNL     1      48.161   1.285   6.775  0.00  0.00    +0.000 OA
ATOM     28  H   UNL     1      46.889   3.821   5.379  0.00  0.00    +0.000 HD
ATOM     29  H   UNL     1      48.130   2.752   4.734  0.00  0.00    +0.000 HD
ENDBRANCH  22  25
ENDBRANCH  17  19
ENDBRANCH  16  17
ENDBRANCH   1  16
TORSDOF 6
ENDMDL
MODEL 4
REMARK VINA RESULT:    -7.247      1.994      2.721
REMARK INTER + INTRA:         -10.519
REMARK INTER:                  -9.992
REMARK INTRA:                  -0.526
REMARK UNBOUND:                -0.729
REMARK  Name = 
REMARK  7 active torsions:
REMARK  status: ('A' for Active; 'I' for Inactive)
REMARK    1  A    between atoms: C_1  and  C_2
REMARK    2  A    between atoms: N_4  and  C_5
REMARK    3  A    between atoms: C_9  and  C_10
REMARK    4  A    between atoms: C_10  and  C_11
REMARK    5  A    between atoms: C_11  and  N_12
REMARK    6  A    between atoms: N_12  and  C_13
REMARK    7  A    between atoms: C_16  and  C_17
REMARK                            x       y       z     vdW  Elec       q    Type
REMARK                         _______ _______ _______ _____ _____    ______ ____
ROOT
ATOM      1  C   UNL     1      45.459   5.238  11.654  0.00  0.00    +0.000 C 
ENDROOT
BRANCH   1   6
ATOM      2  C   UNL     1      47.851   7.273  13.859  0.00  0.00    +0.000 A 
ATOM      3  C   UNL     1      47.295   8.549  13.695  0.00  0.00    +0.000 A 
ATOM      4  C   UNL     1      46.167   8.767  12.895  0.00  0.00    +0.000 A 
ATOM      5  C   UNL     1      45.556   7.702  12.239  0.00  0.00    +0.000 A 
ATOM      6  C   UNL     1      46.074   6.414  12.378  0.00  0.00    +0.000 A 
ATOM      7  C   UNL     1      47.218   6.223  13.176  0.00  0.00    +0.000 A 
BRANCH   2  11
ATOM      8  C   UNL     1      48.415   8.331  17.507  0.00  0.00    +0.000 C 
ATOM      9  C   UNL     1      49.441   7.269  17.092  0.00  0.00    +0.000 C 
ATOM     10  C   UNL     1      48.912   6.371  15.942  0.00  0.00    +0.000 C 
ATOM     11  N   UNL     1      48.961   7.063  14.647  0.00  0.00    +0.000 N 
ATOM     12  C   UNL     1      50.276   7.630  14.314  0.00  0.00    +0.000 C 
ATOM     13  C   UNL     1      50.777   8.524  15.474  0.00  0.00    +0.000 C 
ATOM     14  N   UNL     1      50.762   7.876  16.802  0.00  0.00    +0.000 NA
ATOM     15  H   UNL     1      50.981   8.572  17.512  0.00  0.00    +0.000 HD
ENDBRANCH   2  11
ENDBRANCH   1   6
BRANCH   1  16
ATOM     16  C   UNL     1      44.153   5.645  10.966  0.00  0.00    +0.000 C 
BRANCH  16  17
ATOM     17  N   UNL     1      43.625   4.560  10.125  0.00  0.00    +0.000 N 
ATOM     18  H   UNL     1      42.840   4.865   9.551  0.00  0.00    +0.000 HD
BRANCH  17  19
ATOM     19  C   UNL     1      44.574   3.851   9.365  0.00  0.00    +0.000 A 
ATOM     20  C   UNL     1      44.708   2.461   9.427  0.00  0.00    +0.000 A 
ATOM     21  C   UNL     1      45.642   1.795   8.637  0.00  0.00    +0.000 A 
ATOM     22  C   UNL     1      46.406   2.543   7.758  0.00  0.00    +0.000 A 
ATOM     23  N   UNL     1      46.280   3.889   7.603  0.00  0.00    +0.000 NA
ATOM     24  C   UNL     1      45.356   4.494   8.397  0.00  0.00    +0.000 A 
BRANCH  22  25
ATOM     25  C   UNL     1      47.429   1.850   6.913  0.00  0.00    +0.000 C 
ATOM     26  N   UNL     1      48.460   2.637   6.477  0.00  0.00    +0.000 N 
ATOM     27  O   UNL     1      47.360   0.662   6.628  0.00  0.00    +0.000 OA
ATOM     28  H   UNL     1      48.476   3.619   6.725  0.00  0.00    +0.000 HD
ATOM     29  H   UNL     1      49.178   2.234   5.894  0.00  0.00    +0.000 HD
ENDBRANCH  22  25
ENDBRANCH  17  19
ENDBRANCH  16  17
ENDBRANCH   1  16
TORSDOF 6
ENDMDL
MODEL 5
REMARK VINA RESULT:    -7.001      3.452      8.377
REMARK INTER + INTRA:         -10.187
REMARK INTER:                  -9.405
REMARK INTRA:                  -0.782
REMARK UNBOUND:                -0.729
REMARK  Name = 
REMARK  7 active torsions:
REMARK  status: ('A' for Active; 'I' for Inactive)
REMARK    1  A    between atoms: C_1  and  C_2
REMARK    2  A    between atoms: N_4  and  C_5
REMARK    3  A    between atoms: C_9  and  C_10
REMARK    4  A    between atoms: C_10  and  C_11
REMARK    5  A    between atoms: C_11  and  N_12
REMARK    6  A    between atoms: N_12  and  C_13
REMARK    7  A    between atoms: C_16  and  C_17
REMARK                            x       y       z     vdW  Elec       q    Type
REMARK                         _______ _______ _______ _____ _____    ______ ____
ROOT
ATOM      1  C   UNL     1      48.894   6.404  15.316  0.00  0.00    +0.000 C 
ENDROOT
BRANCH   1   6
ATOM      2  C   UNL     1      46.138   5.504  12.803  0.00  0.00    +0.000 A 
ATOM      3  C   UNL     1      46.517   6.326  11.733  0.00  0.00    +0.000 A 
ATOM      4  C   UNL     1      47.640   7.157  11.801  0.00  0.00    +0.000 A 
ATOM      5  C   UNL     1      48.426   7.183  12.950  0.00  0.00    +0.000 A 
ATOM      6  C   UNL     1      48.087   6.377  14.039  0.00  0.00    +0.000 A 
ATOM      7  C   UNL     1      46.943   5.561  13.951  0.00  0.00    +0.000 A 
BRANCH   2  11
ATOM      8  C   UNL     1      44.729   3.667   9.740  0.00  0.00    +0.000 C 
ATOM      9  C   UNL     1      44.139   3.087  11.031  0.00  0.00    +0.000 C 
ATOM     10  C   UNL     1      45.080   3.302  12.246  0.00  0.00    +0.000 C 
ATOM     11  N   UNL     1      45.030   4.688  12.732  0.00  0.00    +0.000 N 
ATOM     12  C   UNL     1      43.675   5.179  13.018  0.00  0.00    +0.000 C 
ATOM     13  C   UNL     1      42.760   4.957  11.790  0.00  0.00    +0.000 C 
ATOM     14  N   UNL     1      42.759   3.577  11.264  0.00  0.00    +0.000 NA
ATOM     15  H   UNL     1      42.238   3.556  10.389  0.00  0.00    +0.000 HD
ENDBRANCH   2  11
ENDBRANCH   1   6
BRANCH   1  16
ATOM     16  C   UNL     1      48.140   5.707  16.451  0.00  0.00    +0.000 C 
BRANCH  16  17
ATOM     17  N   UNL     1      48.988   5.540  17.642  0.00  0.00    +0.000 N 
ATOM     18  H   UNL     1      48.461   5.645  18.508  0.00  0.00    +0.000 HD
BRANCH  17  19
ATOM     19  C   UNL     1      49.796   4.388  17.666  0.00  0.00    +0.000 A 
ATOM     20  C   UNL     1      49.337   3.135  17.248  0.00  0.00    +0.000 A 
ATOM     21  C   UNL     1      50.178   2.023  17.262  0.00  0.00    +0.000 A 
ATOM     22  C   UNL     1      51.490   2.202  17.662  0.00  0.00    +0.000 A 
ATOM     23  N   UNL     1      52.015   3.405  18.020  0.00  0.00    +0.000 NA
ATOM     24  C   UNL     1      51.156   4.459  17.991  0.00  0.00    +0.000 A 
BRANCH  22  25
ATOM     25  C   UNL     1      52.404   1.018  17.703  0.00  0.00    +0.000 C 
ATOM     26  N   UNL     1      51.878  -0.110  18.274  0.00  0.00    +0.000 N 
ATOM     27  O   UNL     1      53.543   1.043  17.258  0.00  0.00    +0.000 OA
ATOM     28  H   UNL     1      50.935  -0.088  18.642  0.00  0.00    +0.000 HD
ATOM     29  H   UNL     1      52.446  -0.941  18.343  0.00  0.00    +0.000 HD
ENDBRANCH  22  25
ENDBRANCH  17  19
ENDBRANCH  16  17
ENDBRANCH   1  16
TORSDOF 6
ENDMDL
MODEL 6
REMARK VINA RESULT:    -6.647      3.426      5.033
REMARK INTER + INTRA:          -9.708
REMARK INTER:                  -8.687
REMARK INTRA:                  -1.021
REMARK UNBOUND:                -0.729
REMARK  Name = 
REMARK  7 active torsions:
REMARK  status: ('A' for Active; 'I' for Inactive)
REMARK    1  A    between atoms: C_1  and  C_2
REMARK    2  A    between atoms: N_4  and  C_5
REMARK    3  A    between atoms: C_9  and  C_10
REMARK    4  A    between atoms: C_10  and  C_11
REMARK    5  A    between atoms: C_11  and  N_12
REMARK    6  A    between atoms: N_12  and  C_13
REMARK    7  A    between atoms: C_16  and  C_17
REMARK                            x       y       z     vdW  Elec       q    Type
REMARK                         _______ _______ _______ _____ _____    ______ ____
ROOT
ATOM      1  C   UNL     1      48.466   8.140  14.757  0.00  0.00    +0.000 C 
ENDROOT
BRANCH   1   6
ATOM      2  C   UNL     1      50.408   5.735  17.031  0.00  0.00    +0.000 A 
ATOM      3  C   UNL     1      51.717   6.130  16.727  0.00  0.00    +0.000 A 
ATOM      4  C   UNL     1      51.988   7.154  15.813  0.00  0.00    +0.000 A 
ATOM      5  C   UNL     1      50.945   7.821  15.178  0.00  0.00    +0.000 A 
ATOM      6  C   UNL     1      49.624   7.464  15.453  0.00  0.00    +0.000 A 
ATOM      7  C   UNL     1      49.379   6.420  16.365  0.00  0.00    +0.000 A 
BRANCH   2  11
ATOM      8  C   UNL     1      47.239   3.590  17.343  0.00  0.00    +0.000 C 
ATOM      9  C   UNL     1      48.400   2.944  18.107  0.00  0.00    +0.000 C 
ATOM     10  C   UNL     1      49.779   3.361  17.527  0.00  0.00    +0.000 C 
ATOM     11  N   UNL     1      50.145   4.726  17.931  0.00  0.00    +0.000 N 
ATOM     12  C   UNL     1      50.086   4.964  19.380  0.00  0.00    +0.000 C 
ATOM     13  C   UNL     1      48.701   4.544  19.930  0.00  0.00    +0.000 C 
ATOM     14  N   UNL     1      48.284   3.175  19.567  0.00  0.00    +0.000 NA
ATOM     15  H   UNL     1      47.318   3.035  19.858  0.00  0.00    +0.000 HD
ENDBRANCH   2  11
ENDBRANCH   1   6
BRANCH   1  16
ATOM     16  C   UNL     1      48.546   7.934  13.242  0.00  0.00    +0.000 C 
BRANCH  16  17
ATOM     17  N   UNL     1      48.382   6.518  12.880  0.00  0.00    +0.000 N 
ATOM     18  H   UNL     1      48.840   5.895  13.544  0.00  0.00    +0.000 HD
BRANCH  17  19
ATOM     19  C   UNL     1      47.065   6.100  12.607  0.00  0.00    +0.000 A 
ATOM     20  C   UNL     1      46.285   5.404  13.535  0.00  0.00    +0.000 A 
ATOM     21  C   UNL     1      44.976   5.032  13.236  0.00  0.00    +0.000 A 
ATOM     22  C   UNL     1      44.455   5.407  12.010  0.00  0.00    +0.000 A 
ATOM     23  N   UNL     1      45.139   6.139  11.088  0.00  0.00    +0.000 NA
ATOM     24  C   UNL     1      46.413   6.477  11.427  0.00  0.00    +0.000 A 
BRANCH  22  25
ATOM     25  C   UNL     1      43.058   5.002  11.660  0.00  0.00    +0.000 C 
ATOM     26  N   UNL     1      42.117   5.990  11.764  0.00  0.00    +0.000 N 
ATOM     27  O   UNL     1      42.766   3.869  11.301  0.00  0.00    +0.000 OA
ATOM     28  H   UNL     1      42.396   6.912  12.076  0.00  0.00    +0.000 HD
ATOM     29  H   UNL     1      41.153   5.780  11.554  0.00  0.00    +0.000 HD
ENDBRANCH  22  25
ENDBRANCH  17  19
ENDBRANCH  16  17
ENDBRANCH   1  16
TORSDOF 6
ENDMDL
MODEL 7
REMARK VINA RESULT:    -6.608      3.413      8.217
REMARK INTER + INTRA:          -9.655
REMARK INTER:                  -8.888
REMARK INTRA:                  -0.767
REMARK UNBOUND:                -0.729
REMARK  Name = 
REMARK  7 active torsions:
REMARK  status: ('A' for Active; 'I' for Inactive)
REMARK    1  A    between atoms: C_1  and  C_2
REMARK    2  A    between atoms: N_4  and  C_5
REMARK    3  A    between atoms: C_9  and  C_10
REMARK    4  A    between atoms: C_10  and  C_11
REMARK    5  A    between atoms: C_11  and  N_12
REMARK    6  A    between atoms: N_12  and  C_13
REMARK    7  A    between atoms: C_16  and  C_17
REMARK                            x       y       z     vdW  Elec       q    Type
REMARK                         _______ _______ _______ _____ _____    ______ ____
ROOT
ATOM      1  C   UNL     1      48.474   6.558  14.143  0.00  0.00    +0.000 C 
ENDROOT
BRANCH   1   6
ATOM      2  C   UNL     1      45.436   6.690  11.804  0.00  0.00    +0.000 A 
ATOM      3  C   UNL     1      45.145   8.059  11.872  0.00  0.00    +0.000 A 
ATOM      4  C   UNL     1      45.908   8.940  12.648  0.00  0.00    +0.000 A 
ATOM      5  C   UNL     1      46.995   8.469  13.378  0.00  0.00    +0.000 A 
ATOM      6  C   UNL     1      47.323   7.113  13.336  0.00  0.00    +0.000 A 
ATOM      7  C   UNL     1      46.531   6.246  12.560  0.00  0.00    +0.000 A 
BRANCH   2  11
ATOM      8  C   UNL     1      43.561   3.533  12.928  0.00  0.00    +0.000 C 
ATOM      9  C   UNL     1      43.068   3.986  11.549  0.00  0.00    +0.000 C 
ATOM     10  C   UNL     1      43.277   5.509  11.330  0.00  0.00    +0.000 C 
ATOM     11  N   UNL     1      44.682   5.827  11.039  0.00  0.00    +0.000 N 
ATOM     12  C   UNL     1      45.261   5.049   9.935  0.00  0.00    +0.000 C 
ATOM     13  C   UNL     1      45.043   3.537  10.181  0.00  0.00    +0.000 C 
ATOM     14  N   UNL     1      43.645   3.154  10.466  0.00  0.00    +0.000 NA
ATOM     15  H   UNL     1      43.620   2.173  10.740  0.00  0.00    +0.000 HD
ENDBRANCH   2  11
ENDBRANCH   1   6
BRANCH   1  16
ATOM     16  C   UNL     1      48.608   7.295  15.478  0.00  0.00    +0.000 C 
BRANCH  16  17
ATOM     17  N   UNL     1      48.268   6.423  16.613  0.00  0.00    +0.000 N 
ATOM     18  H   UNL     1      47.309   6.079  16.560  0.00  0.00    +0.000 HD
BRANCH  17  19
ATOM     19  C   UNL     1      49.174   5.379  16.882  0.00  0.00    +0.000 A 
ATOM     20  C   UNL     1      50.518   5.607  17.193  0.00  0.00    +0.000 A 
ATOM     21  C   UNL     1      51.376   4.547  17.480  0.00  0.00    +0.000 A 
ATOM     22  C   UNL     1      50.852   3.267  17.488  0.00  0.00    +0.000 A 
ATOM     23  N   UNL     1      49.541   2.983  17.256  0.00  0.00    +0.000 NA
ATOM     24  C   UNL     1      48.744   4.050  16.981  0.00  0.00    +0.000 A 
BRANCH  22  25
ATOM     25  C   UNL     1      51.761   2.113  17.775  0.00  0.00    +0.000 C 
ATOM     26  N   UNL     1      51.208   0.873  17.599  0.00  0.00    +0.000 N 
ATOM     27  O   UNL     1      52.920   2.255  18.139  0.00  0.00    +0.000 OA
ATOM     28  H   UNL     1      50.241   0.796  17.307  0.00  0.00    +0.000 HD
ATOM     29  H   UNL     1      51.763   0.052  17.785  0.00  0.00    +0.000 HD
ENDBRANCH  22  25
ENDBRANCH  17  19
ENDBRANCH  16  17
ENDBRANCH   1  16
TORSDOF 6
ENDMDL
MODEL 8
REMARK VINA RESULT:    -6.588      3.477      7.797
REMARK INTER + INTRA:          -9.629
REMARK INTER:                  -8.659
REMARK INTRA:                  -0.970
REMARK UNBOUND:                -0.729
REMARK  Name = 
REMARK  7 active torsions:
REMARK  status: ('A' for Active; 'I' for Inactive)
REMARK    1  A    between atoms: C_1  and  C_2
REMARK    2  A    between atoms: N_4  and  C_5
REMARK    3  A    between atoms: C_9  and  C_10
REMARK    4  A    between atoms: C_10  and  C_11
REMARK    5  A    between atoms: C_11  and  N_12
REMARK    6  A    between atoms: N_12  and  C_13
REMARK    7  A    between atoms: C_16  and  C_17
REMARK                            x       y       z     vdW  Elec       q    Type
REMARK                         _______ _______ _______ _____ _____    ______ ____
ROOT
ATOM      1  C   UNL     1      49.175   8.753  12.415  0.00  0.00    +0.000 C 
ENDROOT
BRANCH   1   6
ATOM      2  C   UNL     1      45.889   6.877  11.778  0.00  0.00    +0.000 A 
ATOM      3  C   UNL     1      44.996   7.956  11.784  0.00  0.00    +0.000 A 
ATOM      4  C   UNL     1      45.428   9.273  11.983  0.00  0.00    +0.000 A 
ATOM      5  C   UNL     1      46.779   9.545  12.176  0.00  0.00    +0.000 A 
ATOM      6  C   UNL     1      47.704   8.500  12.173  0.00  0.00    +0.000 A 
ATOM      7  C   UNL     1      47.242   7.184  11.987  0.00  0.00    +0.000 A 
BRANCH   2  11
ATOM      8  C   UNL     1      42.288   5.544  11.759  0.00  0.00    +0.000 C 
ATOM      9  C   UNL     1      43.241   4.523  11.126  0.00  0.00    +0.000 C 
ATOM     10  C   UNL     1      44.505   5.200  10.532  0.00  0.00    +0.000 C 
ATOM     11  N   UNL     1      45.459   5.583  11.583  0.00  0.00    +0.000 N 
ATOM     12  C   UNL     1      45.822   4.490  12.496  0.00  0.00    +0.000 C 
ATOM     13  C   UNL     1      44.545   3.836  13.076  0.00  0.00    +0.000 C 
ATOM     14  N   UNL     1      43.553   3.418  12.064  0.00  0.00    +0.000 NA
ATOM     15  H   UNL     1      42.701   3.123  12.538  0.00  0.00    +0.000 HD
ENDBRANCH   2  11
ENDBRANCH   1   6
BRANCH   1  16
ATOM     16  C   UNL     1      49.780   7.651  13.289  0.00  0.00    +0.000 C 
BRANCH  16  17
ATOM     17  N   UNL     1      49.579   7.926  14.720  0.00  0.00    +0.000 N 
ATOM     18  H   UNL     1      49.010   8.757  14.877  0.00  0.00    +0.000 HD
BRANCH  17  19
ATOM     19  C   UNL     1      49.132   6.842  15.499  0.00  0.00    +0.000 A 
ATOM     20  C   UNL     1      49.428   6.715  16.859  0.00  0.00    +0.000 A 
ATOM     21  C   UNL     1      48.943   5.640  17.601  0.00  0.00    +0.000 A 
ATOM     22  C   UNL     1      48.126   4.723  16.964  0.00  0.00    +0.000 A 
ATOM     23  N   UNL     1      47.749   4.822  15.660  0.00  0.00    +0.000 NA
ATOM     24  C   UNL     1      48.249   5.888  14.978  0.00  0.00    +0.000 A 
BRANCH  22  25
ATOM     25  C   UNL     1      47.610   3.550  17.737  0.00  0.00    +0.000 C 
ATOM     26  N   UNL     1      48.370   3.176  18.812  0.00  0.00    +0.000 N 
ATOM     27  O   UNL     1      46.580   2.960  17.440  0.00  0.00    +0.000 OA
ATOM     28  H   UNL     1      49.223   3.681  19.020  0.00  0.00    +0.000 HD
ATOM     29  H   UNL     1      48.084   2.385  19.370  0.00  0.00    +0.000 HD
ENDBRANCH  22  25
ENDBRANCH  17  19
ENDBRANCH  16  17
ENDBRANCH   1  16
TORSDOF 6
ENDMDL
MODEL 9
REMARK VINA RESULT:    -6.339      3.574      8.121
REMARK INTER + INTRA:          -9.291
REMARK INTER:                  -8.480
REMARK INTRA:                  -0.811
REMARK UNBOUND:                -0.729
REMARK  Name = 
REMARK  7 active torsions:
REMARK  status: ('A' for Active; 'I' for Inactive)
REMARK    1  A    between atoms: C_1  and  C_2
REMARK    2  A    between atoms: N_4  and  C_5
REMARK    3  A    between atoms: C_9  and  C_10
REMARK    4  A    between atoms: C_10  and  C_11
REMARK    5  A    between atoms: C_11  and  N_12
REMARK    6  A    between atoms: N_12  and  C_13
REMARK    7  A    between atoms: C_16  and  C_17
REMARK                            x       y       z     vdW  Elec       q    Type
REMARK                         _______ _______ _______ _____ _____    ______ ____
ROOT
ATOM      1  C   UNL     1      49.461   7.239  12.531  0.00  0.00    +0.000 C 
ENDROOT
BRANCH   1   6
ATOM      2  C   UNL     1      45.716   6.418  12.398  0.00  0.00    +0.000 A 
ATOM      3  C   UNL     1      45.199   7.704  12.194  0.00  0.00    +0.000 A 
ATOM      4  C   UNL     1      46.029   8.827  12.094  0.00  0.00    +0.000 A 
ATOM      5  C   UNL     1      47.411   8.688  12.189  0.00  0.00    +0.000 A 
ATOM      6  C   UNL     1      47.969   7.425  12.388  0.00  0.00    +0.000 A 
ATOM      7  C   UNL     1      47.111   6.314  12.500  0.00  0.00    +0.000 A 
BRANCH   2  11
ATOM      8  C   UNL     1      44.672   3.974   9.626  0.00  0.00    +0.000 C 
ATOM      9  C   UNL     1      44.382   3.374  11.007  0.00  0.00    +0.000 C 
ATOM     10  C   UNL     1      45.312   3.963  12.102  0.00  0.00    +0.000 C 
ATOM     11  N   UNL     1      44.895   5.316  12.496  0.00  0.00    +0.000 N 
ATOM     12  C   UNL     1      43.483   5.423  12.887  0.00  0.00    +0.000 C 
ATOM     13  C   UNL     1      42.579   4.834  11.777  0.00  0.00    +0.000 C 
ATOM     14  N   UNL     1      42.942   3.468  11.348  0.00  0.00    +0.000 NA
ATOM     15  H   UNL     1      42.382   3.216  10.535  0.00  0.00    +0.000 HD
ENDBRANCH   2  11
ENDBRANCH   1   6
BRANCH   1  16
ATOM     16  C   UNL     1      50.067   8.346  13.398  0.00  0.00    +0.000 C 
BRANCH  16  17
ATOM     17  N   UNL     1      49.508   8.333  14.759  0.00  0.00    +0.000 N 
ATOM     18  H   UNL     1      48.506   8.517  14.766  0.00  0.00    +0.000 HD
BRANCH  17  19
ATOM     19  C   UNL     1      49.831   7.211  15.547  0.00  0.00    +0.000 A 
ATOM     20  C   UNL     1      51.102   7.013  16.095  0.00  0.00    +0.000 A 
ATOM     21  C   UNL     1      51.373   5.903  16.893  0.00  0.00    +0.000 A 
ATOM     22  C   UNL     1      50.339   5.023  17.160  0.00  0.00    +0.000 A 
ATOM     23  N   UNL     1      49.065   5.192  16.710  0.00  0.00    +0.000 NA
ATOM     24  C   UNL     1      48.851   6.289  15.936  0.00  0.00    +0.000 A 
BRANCH  22  25
ATOM     25  C   UNL     1      50.613   3.814  17.998  0.00  0.00    +0.000 C 
ATOM     26  N   UNL     1      49.559   3.371  18.751  0.00  0.00    +0.000 N 
ATOM     27  O   UNL     1      51.698   3.251  18.015  0.00  0.00    +0.000 OA
ATOM     28  H   UNL     1      48.679   3.871  18.719  0.00  0.00    +0.000 HD
ATOM     29  H   UNL     1      49.680   2.566  19.347  0.00  0.00    +0.000 HD
ENDBRANCH  22  25
ENDBRANCH  17  19
ENDBRANCH  16  17
ENDBRANCH   1  16
TORSDOF 6
ENDMDL
