MODEL 1
REMARK VINA RESULT:    -7.339      0.000      0.000
REMARK INTER + INTRA:         -10.052
REMARK INTER:                  -9.484
REMARK INTRA:                  -0.568
REMARK UNBOUND:                -0.568
REMARK  Name = 
REMARK  5 active torsions:
REMARK  status: ('A' for Active; 'I' for Inactive)
REMARK    1  A    between atoms: C_2  and  C_4
REMARK    2  A    between atoms: C_8  and  C_9
REMARK    3  A    between atoms: C_9  and  O_10
REMARK    4  A    between atoms: O_10  and  C_11
REMARK    5  A    between atoms: C_15  and  N_16
REMARK                            x       y       z     vdW  Elec       q    Type
REMARK                         _______ _______ _______ _____ _____    ______ ____
ROOT
ATOM      1  O   UNL     1      45.735   6.324  12.626  0.00  0.00    +0.000 OA
ENDROOT
BRANCH   1   2
ATOM      2  C   UNL     1      45.065   5.227  12.158  0.00  0.00    +0.000 A 
ATOM      3  C   UNL     1      44.257   4.558  13.066  0.00  0.00    +0.000 A 
ATOM      4  N   UNL     1      43.543   3.449  12.773  0.00  0.00    +0.000 NA
ATOM      5  C   UNL     1      43.662   2.978  11.507  0.00  0.00    +0.000 A 
ATOM      6  C   UNL     1      44.458   3.533  10.501  0.00  0.00    +0.000 A 
ATOM      7  C   UNL     1      45.163   4.693  10.871  0.00  0.00    +0.000 A 
BRANCH   6   8
ATOM      8  N   UNL     1      44.549   3.023   9.218  0.00  0.00    +0.000 N 
ATOM      9  C   UNL     1      44.827   1.602   8.941  0.00  0.00    +0.000 C 
ATOM     10  C   UNL     1      46.197   1.428   8.270  0.00  0.00    +0.000 C 
ATOM     11  O   UNL     1      46.319   2.252   7.099  0.00  0.00    +0.000 OA
ATOM     12  C   UNL     1      46.165   3.636   7.449  0.00  0.00    +0.000 C 
ATOM     13  C   UNL     1      44.785   3.917   8.070  0.00  0.00    +0.000 C 
ENDBRANCH   6   8
ENDBRANCH   1   2
BRANCH   1  14
ATOM     14  C   UNL     1      47.160   6.218  12.655  0.00  0.00    +0.000 C 
BRANCH  14  19
ATOM     15  C   UNL     1      47.876   4.668  16.080  0.00  0.00    +0.000 A 
ATOM     16  C   UNL     1      48.640   5.671  16.685  0.00  0.00    +0.000 A 
ATOM     17  C   UNL     1      48.882   6.865  16.004  0.00  0.00    +0.000 A 
ATOM     18  C   UNL     1      48.383   7.054  14.714  0.00  0.00    +0.000 A 
ATOM     19  C   UNL     1      47.630   6.053  14.085  0.00  0.00    +0.000 A 
ATOM     20  C   UNL     1      47.374   4.862  14.785  0.00  0.00    +0.000 A 
BRANCH  15  22
ATOM     21  N   UNL     1      48.614   2.410  16.652  0.00  0.00    +0.000 N 
ATOM     22  C   UNL     1      47.633   3.357  16.747  0.00  0.00    +0.000 C 
ATOM     23  O   UNL     1      46.605   3.138  17.369  0.00  0.00    +0.000 OA
ATOM     24  H   UNL     1      48.463   1.551  17.167  0.00  0.00    +0.000 HD
ATOM     25  H   UNL     1      49.557   2.625  16.363  0.00  0.00    +0.000 HD
ENDBRANCH  15  22
ENDBRANCH  14  19
ENDBRANCH   1  14
TORSDOF 5
ENDMDL
MODEL 2
REMARK VINA RESULT:    -7.316      2.524      7.466
REMARK INTER + INTRA:         -10.023
REMARK INTER:                  -9.362
REMARK INTRA:                  -0.661
REMARK UNBOUND:                -0.568
REMARK  Name = 
REMARK  5 active torsions:
REMARK  status: ('A' for Active; 'I' for Inactive)
REMARK    1  A    between atoms: C_2  and  C_4
REMARK    2  A    between atoms: C_8  and  C_9
REMARK    3  A    between atoms: C_9  and  O_10
REMARK    4  A    between atoms: O_10  and  C_11
REMARK    5  A    between atoms: C_15  and  N_16
REMARK                            x       y       z     vdW  Elec       q    Type
REMARK                         _______ _______ _______ _____ _____    ______ ____
ROOT
ATOM      1  O   UNL     1      44.563   5.266  11.047  0.00  0.00    +0.000 OA
ENDROOT
BRANCH   1   2
ATOM      2  C   UNL     1      45.497   5.256  12.046  0.00  0.00    +0.000 A 
ATOM      3  C   UNL     1      45.360   4.273  13.015  0.00  0.00    +0.000 A 
ATOM      4  N   UNL     1      46.184   4.135  14.076  0.00  0.00    +0.000 NA
ATOM      5  C   UNL     1      47.186   5.042  14.178  0.00  0.00    +0.000 A 
ATOM      6  C   UNL     1      47.425   6.098  13.294  0.00  0.00    +0.000 A 
ATOM      7  C   UNL     1      46.538   6.174  12.205  0.00  0.00    +0.000 A 
BRANCH   6   8
ATOM      8  N   UNL     1      48.463   7.002  13.432  0.00  0.00    +0.000 N 
ATOM      9  C   UNL     1      48.481   8.046  14.473  0.00  0.00    +0.000 C 
ATOM     10  C   UNL     1      48.377   9.446  13.854  0.00  0.00    +0.000 C 
ATOM     11  O   UNL     1      49.383   9.654  12.849  0.00  0.00    +0.000 OA
ATOM     12  C   UNL     1      49.238   8.688  11.796  0.00  0.00    +0.000 C 
ATOM     13  C   UNL     1      49.397   7.249  12.318  0.00  0.00    +0.000 C 
ENDBRANCH   6   8
ENDBRANCH   1   2
BRANCH   1  14
ATOM     14  C   UNL     1      45.072   5.399   9.718  0.00  0.00    +0.000 C 
BRANCH  14  19
ATOM     15  C   UNL     1      46.469   2.557   7.570  0.00  0.00    +0.000 A 
ATOM     16  C   UNL     1      45.782   1.453   8.087  0.00  0.00    +0.000 A 
ATOM     17  C   UNL     1      44.834   1.636   9.095  0.00  0.00    +0.000 A 
ATOM     18  C   UNL     1      44.585   2.913   9.604  0.00  0.00    +0.000 A 
ATOM     19  C   UNL     1      45.277   4.027   9.110  0.00  0.00    +0.000 A 
ATOM     20  C   UNL     1      46.214   3.837   8.081  0.00  0.00    +0.000 A 
BRANCH  15  22
ATOM     21  N   UNL     1      47.401   3.151   5.391  0.00  0.00    +0.000 N 
ATOM     22  C   UNL     1      47.525   2.405   6.528  0.00  0.00    +0.000 C 
ATOM     23  O   UNL     1      48.475   1.653   6.688  0.00  0.00    +0.000 OA
ATOM     24  H   UNL     1      48.160   3.087   4.724  0.00  0.00    +0.000 HD
ATOM     25  H   UNL     1      46.780   3.945   5.321  0.00  0.00    +0.000 HD
ENDBRANCH  15  22
ENDBRANCH  14  19
ENDBRANCH   1  14
TORSDOF 5
ENDMDL
MODEL 3
REMARK VINA RESULT:    -7.114      2.736      4.630
REMARK INTER + INTRA:          -9.761
REMARK INTER:                  -9.069
REMARK INTRA:                  -0.692
REMARK UNBOUND:                -0.568
REMARK  Name = 
REMARK  5 active torsions:
REMARK  status: ('A' for Active; 'I' for Inactive)
REMARK    1  A    between atoms: C_2  and  C_4
REMARK    2  A    between atoms: C_8  and  C_9
REMARK    3  A    between atoms: C_9  and  O_10
REMARK    4  A    between atoms: O_10  and  C_11
REMARK    5  A    between atoms: C_15  and  N_16
REMARK                            x       y       z     vdW  Elec       q    Type
REMARK                         _______ _______ _______ _____ _____    ______ ____
ROOT
ATOM      1  O   UNL     1      45.923   5.895  13.136  0.00  0.00    +0.000 OA
ENDROOT
BRANCH   1   2
ATOM      2  C   UNL     1      45.174   4.919  12.536  0.00  0.00    +0.000 A 
ATOM      3  C   UNL     1      44.283   4.233  13.348  0.00  0.00    +0.000 A 
ATOM      4  N   UNL     1      43.485   3.230  12.920  0.00  0.00    +0.000 NA
ATOM      5  C   UNL     1      43.601   2.889  11.614  0.00  0.00    +0.000 A 
ATOM      6  C   UNL     1      44.474   3.473  10.691  0.00  0.00    +0.000 A 
ATOM      7  C   UNL     1      45.265   4.519  11.201  0.00  0.00    +0.000 A 
BRANCH   6   8
ATOM      8  N   UNL     1      44.560   3.097   9.363  0.00  0.00    +0.000 N 
ATOM      9  C   UNL     1      44.763   1.700   8.940  0.00  0.00    +0.000 C 
ATOM     10  C   UNL     1      46.133   1.518   8.272  0.00  0.00    +0.000 C 
ATOM     11  O   UNL     1      46.323   2.452   7.197  0.00  0.00    +0.000 OA
ATOM     12  C   UNL     1      46.241   3.799   7.690  0.00  0.00    +0.000 C 
ATOM     13  C   UNL     1      44.868   4.092   8.320  0.00  0.00    +0.000 C 
ENDBRANCH   6   8
ENDBRANCH   1   2
BRANCH   1  14
ATOM     14  C   UNL     1      46.974   6.449  12.342  0.00  0.00    +0.000 C 
BRANCH  14  19
ATOM     15  C   UNL     1      45.122   9.728  11.659  0.00  0.00    +0.000 A 
ATOM     16  C   UNL     1      46.157  10.662  11.780  0.00  0.00    +0.000 A 
ATOM     17  C   UNL     1      47.458  10.228  12.034  0.00  0.00    +0.000 A 
ATOM     18  C   UNL     1      47.728   8.866  12.189  0.00  0.00    +0.000 A 
ATOM     19  C   UNL     1      46.701   7.918  12.089  0.00  0.00    +0.000 A 
ATOM     20  C   UNL     1      45.398   8.362  11.813  0.00  0.00    +0.000 A 
BRANCH  15  22
ATOM     21  N   UNL     1      42.896   9.287  10.755  0.00  0.00    +0.000 N 
ATOM     22  C   UNL     1      43.709  10.147  11.437  0.00  0.00    +0.000 C 
ATOM     23  O   UNL     1      43.285  11.212  11.860  0.00  0.00    +0.000 OA
ATOM     24  H   UNL     1      41.923   9.556  10.672  0.00  0.00    +0.000 HD
ATOM     25  H   UNL     1      43.129   8.316  10.603  0.00  0.00    +0.000 HD
ENDBRANCH  15  22
ENDBRANCH  14  19
ENDBRANCH   1  14
TORSDOF 5
ENDMDL
MODEL 4
REMARK VINA RESULT:    -7.077      2.197      7.526
REMARK INTER + INTRA:          -9.713
REMARK INTER:                  -8.960
REMARK INTRA:                  -0.753
REMARK UNBOUND:                -0.568
REMARK  Name = 
REMARK  5 active torsions:
REMARK  status: ('A' for Active; 'I' for Inactive)
REMARK    1  A    between atoms: C_2  and  C_4
REMARK    2  A    between atoms: C_8  and  C_9
REMARK    3  A    between atoms: C_9  and  O_10
REMARK    4  A    between atoms: O_10  and  C_11
REMARK    5  A    between atoms: C_15  and  N_16
REMARK                            x       y       z     vdW  Elec       q    Type
REMARK                         _______ _______ _______ _____ _____    ______ ____
ROOT
ATOM      1  O   UNL     1      43.730   4.679  10.557  0.00  0.00    +0.000 OA
ENDROOT
BRANCH   1   2
ATOM      2  C   UNL     1      44.521   5.428  11.385  0.00  0.00    +0.000 A 
ATOM      3  C   UNL     1      44.264   6.790  11.426  0.00  0.00    +0.000 A 
ATOM      4  N   UNL     1      44.963   7.671  12.175  0.00  0.00    +0.000 NA
ATOM      5  C   UNL     1      45.983   7.159  12.906  0.00  0.00    +0.000 A 
ATOM      6  C   UNL     1      46.371   5.816  12.938  0.00  0.00    +0.000 A 
ATOM      7  C   UNL     1      45.592   4.953  12.147  0.00  0.00    +0.000 A 
BRANCH   6   8
ATOM      8  N   UNL     1      47.418   5.333  13.702  0.00  0.00    +0.000 N 
ATOM      9  C   UNL     1      47.338   4.072  14.461  0.00  0.00    +0.000 C 
ATOM     10  C   UNL     1      47.382   4.334  15.973  0.00  0.00    +0.000 C 
ATOM     11  O   UNL     1      48.524   5.125  16.338  0.00  0.00    +0.000 OA
ATOM     12  C   UNL     1      48.483   6.394  15.666  0.00  0.00    +0.000 C 
ATOM     13  C   UNL     1      48.506   6.229  14.136  0.00  0.00    +0.000 C 
ENDBRANCH   6   8
ENDBRANCH   1   2
BRANCH   1  14
ATOM     14  C   UNL     1      44.003   4.798   9.159  0.00  0.00    +0.000 C 
BRANCH  14  19
ATOM     15  C   UNL     1      46.419   2.549   7.225  0.00  0.00    +0.000 A 
ATOM     16  C   UNL     1      46.252   1.327   7.886  0.00  0.00    +0.000 A 
ATOM     17  C   UNL     1      45.325   1.221   8.923  0.00  0.00    +0.000 A 
ATOM     18  C   UNL     1      44.579   2.333   9.318  0.00  0.00    +0.000 A 
ATOM     19  C   UNL     1      44.746   3.569   8.678  0.00  0.00    +0.000 A 
ATOM     20  C   UNL     1      45.667   3.663   7.622  0.00  0.00    +0.000 A 
BRANCH  15  22
ATOM     21  N   UNL     1      48.734   2.441   6.450  0.00  0.00    +0.000 N 
ATOM     22  C   UNL     1      47.432   2.724   6.145  0.00  0.00    +0.000 C 
ATOM     23  O   UNL     1      47.114   3.092   5.025  0.00  0.00    +0.000 OA
ATOM     24  H   UNL     1      49.398   2.499   5.688  0.00  0.00    +0.000 HD
ATOM     25  H   UNL     1      49.003   1.914   7.268  0.00  0.00    +0.000 HD
ENDBRANCH  15  22
ENDBRANCH  14  19
ENDBRANCH   1  14
TORSDOF 5
ENDMDL
MODEL 5
REMARK VINA RESULT:    -6.968      2.504      3.923
REMARK INTER + INTRA:          -9.573
REMARK INTER:                  -8.809
REMARK INTRA:                  -0.764
REMARK UNBOUND:                -0.568
REMARK  Name = 
REMARK  5 active torsions:
REMARK  status: ('A' for Active; 'I' for Inactive)
REMARK    1  A    between atoms: C_2  and  C_4
REMARK    2  A    between atoms: C_8  and  C_9
REMARK    3  A    between atoms: C_9  and  O_10
REMARK    4  A    between atoms: O_10  and  C_11
REMARK    5  A    between atoms: C_15  and  N_16
REMARK                            x       y       z     vdW  Elec       q    Type
REMARK                         _______ _______ _______ _____ _____    ______ ____
ROOT
ATOM      1  O   UNL     1      49.035   6.564  14.639  0.00  0.00    +0.000 OA
ENDROOT
BRANCH   1   2
ATOM      2  C   UNL     1      47.835   6.630  13.985  0.00  0.00    +0.000 A 
ATOM      3  C   UNL     1      47.450   7.878  13.517  0.00  0.00    +0.000 A 
ATOM      4  N   UNL     1      46.290   8.120  12.869  0.00  0.00    +0.000 NA
ATOM      5  C   UNL     1      45.467   7.057  12.698  0.00  0.00    +0.000 A 
ATOM      6  C   UNL     1      45.712   5.754  13.141  0.00  0.00    +0.000 A 
ATOM      7  C   UNL     1      46.944   5.570  13.796  0.00  0.00    +0.000 A 
BRANCH   6   8
ATOM      8  N   UNL     1      44.846   4.694  12.944  0.00  0.00    +0.000 N 
ATOM      9  C   UNL     1      45.267   3.419  12.338  0.00  0.00    +0.000 C 
ATOM     10  C   UNL     1      44.598   3.208  10.973  0.00  0.00    +0.000 C 
ATOM     11  O   UNL     1      43.169   3.329  11.062  0.00  0.00    +0.000 OA
ATOM     12  C   UNL     1      42.812   4.636  11.537  0.00  0.00    +0.000 C 
ATOM     13  C   UNL     1      43.386   4.910  12.938  0.00  0.00    +0.000 C 
ENDBRANCH   6   8
ENDBRANCH   1   2
BRANCH   1  14
ATOM     14  C   UNL     1      49.035   7.033  15.990  0.00  0.00    +0.000 C 
BRANCH  14  19
ATOM     15  C   UNL     1      49.364   3.529  17.492  0.00  0.00    +0.000 A 
ATOM     16  C   UNL     1      48.793   3.713  18.757  0.00  0.00    +0.000 A 
ATOM     17  C   UNL     1      48.261   4.956  19.103  0.00  0.00    +0.000 A 
ATOM     18  C   UNL     1      48.314   6.021  18.201  0.00  0.00    +0.000 A 
ATOM     19  C   UNL     1      48.898   5.859  16.937  0.00  0.00    +0.000 A 
ATOM     20  C   UNL     1      49.413   4.599  16.589  0.00  0.00    +0.000 A 
BRANCH  15  22
ATOM     21  N   UNL     1      50.970   1.735  17.906  0.00  0.00    +0.000 N 
ATOM     22  C   UNL     1      49.989   2.235  17.096  0.00  0.00    +0.000 C 
ATOM     23  O   UNL     1      49.633   1.634  16.094  0.00  0.00    +0.000 OA
ATOM     24  H   UNL     1      51.336   0.823  17.659  0.00  0.00    +0.000 HD
ATOM     25  H   UNL     1      51.124   2.064  18.848  0.00  0.00    +0.000 HD
ENDBRANCH  15  22
ENDBRANCH  14  19
ENDBRANCH   1  14
TORSDOF 5
ENDMDL
MODEL 6
REMARK VINA RESULT:    -6.824      2.919      3.801
REMARK INTER + INTRA:          -9.387
REMARK INTER:                  -8.639
REMARK INTRA:                  -0.748
REMARK UNBOUND:                -0.568
REMARK  Name = 
REMARK  5 active torsions:
REMARK  status: ('A' for Active; 'I' for Inactive)
REMARK    1  A    between atoms: C_2  and  C_4
REMARK    2  A    between atoms: C_8  and  C_9
REMARK    3  A    between atoms: C_9  and  O_10
REMARK    4  A    between atoms: O_10  and  C_11
REMARK    5  A    between atoms: C_15  and  N_16
REMARK                            x       y       z     vdW  Elec       q    Type
REMARK                         _______ _______ _______ _____ _____    ______ ____
ROOT
ATOM      1  O   UNL     1      45.208   6.418  12.961  0.00  0.00    +0.000 OA
ENDROOT
BRANCH   1   2
ATOM      2  C   UNL     1      44.715   5.263  12.419  0.00  0.00    +0.000 A 
ATOM      3  C   UNL     1      44.038   4.412  13.281  0.00  0.00    +0.000 A 
ATOM      4  N   UNL     1      43.507   3.226  12.913  0.00  0.00    +0.000 NA
ATOM      5  C   UNL     1      43.681   2.869  11.616  0.00  0.00    +0.000 A 
ATOM      6  C   UNL     1      44.363   3.612  10.649  0.00  0.00    +0.000 A 
ATOM      7  C   UNL     1      44.878   4.842  11.097  0.00  0.00    +0.000 A 
BRANCH   6   8
ATOM      8  N   UNL     1      44.515   3.212   9.334  0.00  0.00    +0.000 N 
ATOM      9  C   UNL     1      44.710   1.804   8.943  0.00  0.00    +0.000 C 
ATOM     10  C   UNL     1      46.111   1.582   8.358  0.00  0.00    +0.000 C 
ATOM     11  O   UNL     1      46.383   2.494   7.281  0.00  0.00    +0.000 OA
ATOM     12  C   UNL     1      46.305   3.849   7.749  0.00  0.00    +0.000 C 
ATOM     13  C   UNL     1      44.906   4.184   8.295  0.00  0.00    +0.000 C 
ENDBRANCH   6   8
ENDBRANCH   1   2
BRANCH   1  14
ATOM     14  C   UNL     1      44.932   7.616  12.231  0.00  0.00    +0.000 C 
BRANCH  14  19
ATOM     15  C   UNL     1      48.629   8.574  11.987  0.00  0.00    +0.000 A 
ATOM     16  C   UNL     1      48.544   9.947  11.730  0.00  0.00    +0.000 A 
ATOM     17  C   UNL     1      47.296  10.569  11.684  0.00  0.00    +0.000 A 
ATOM     18  C   UNL     1      46.130   9.823  11.872  0.00  0.00    +0.000 A 
ATOM     19  C   UNL     1      46.195   8.444  12.113  0.00  0.00    +0.000 A 
ATOM     20  C   UNL     1      47.457   7.829  12.178  0.00  0.00    +0.000 A 
BRANCH  15  22
ATOM     21  N   UNL     1      50.351   7.319  13.181  0.00  0.00    +0.000 N 
ATOM     22  C   UNL     1      49.936   7.858  11.996  0.00  0.00    +0.000 C 
ATOM     23  O   UNL     1      50.608   7.742  10.982  0.00  0.00    +0.000 OA
ATOM     24  H   UNL     1      51.207   6.779  13.156  0.00  0.00    +0.000 HD
ATOM     25  H   UNL     1      49.733   7.183  13.968  0.00  0.00    +0.000 HD
ENDBRANCH  15  22
ENDBRANCH  14  19
ENDBRANCH   1  14
TORSDOF 5
ENDMDL
MODEL 7
REMARK VINA RESULT:    -6.816      2.384      3.767
REMARK INTER + INTRA:          -9.376
REMARK INTER:                  -8.626
REMARK INTRA:                  -0.749
REMARK UNBOUND:                -0.568
REMARK  Name = 
REMARK  5 active torsions:
REMARK  status: ('A' for Active; 'I' for Inactive)
REMARK    1  A    between atoms: C_2  and  C_4
REMARK    2  A    between atoms: C_8  and  C_9
REMARK    3  A    between atoms: C_9  and  O_10
REMARK    4  A    between atoms: O_10  and  C_11
REMARK    5  A    between atoms: C_15  and  N_16
REMARK                            x       y       z     vdW  Elec       q    Type
REMARK                         _______ _______ _______ _____ _____    ______ ____
ROOT
ATOM      1  O   UNL     1      49.161   6.778  13.997  0.00  0.00    +0.000 OA
ENDROOT
BRANCH   1   2
ATOM      2  C   UNL     1      47.871   6.822  13.543  0.00  0.00    +0.000 A 
ATOM      3  C   UNL     1      47.373   8.073  13.208  0.00  0.00    +0.000 A 
ATOM      4  N   UNL     1      46.117   8.294  12.762  0.00  0.00    +0.000 NA
ATOM      5  C   UNL     1      45.316   7.205  12.665  0.00  0.00    +0.000 A 
ATOM      6  C   UNL     1      45.675   5.894  12.994  0.00  0.00    +0.000 A 
ATOM      7  C   UNL     1      47.000   5.734  13.438  0.00  0.00    +0.000 A 
BRANCH   6   8
ATOM      8  N   UNL     1      44.827   4.809  12.878  0.00  0.00    +0.000 N 
ATOM      9  C   UNL     1      45.258   3.513  12.322  0.00  0.00    +0.000 C 
ATOM     10  C   UNL     1      44.550   3.220  10.991  0.00  0.00    +0.000 C 
ATOM     11  O   UNL     1      43.123   3.316  11.121  0.00  0.00    +0.000 OA
ATOM     12  C   UNL     1      42.751   4.637  11.543  0.00  0.00    +0.000 C 
ATOM     13  C   UNL     1      43.364   4.993  12.909  0.00  0.00    +0.000 C 
ENDBRANCH   6   8
ENDBRANCH   1   2
BRANCH   1  14
ATOM     14  C   UNL     1      49.384   7.334  15.295  0.00  0.00    +0.000 C 
BRANCH  14  19
ATOM     15  C   UNL     1      49.044   4.308  17.613  0.00  0.00    +0.000 A 
ATOM     16  C   UNL     1      50.379   4.068  17.956  0.00  0.00    +0.000 A 
ATOM     17  C   UNL     1      51.381   4.912  17.475  0.00  0.00    +0.000 A 
ATOM     18  C   UNL     1      51.058   5.983  16.638  0.00  0.00    +0.000 A 
ATOM     19  C   UNL     1      49.728   6.228  16.271  0.00  0.00    +0.000 A 
ATOM     20  C   UNL     1      48.723   5.385  16.775  0.00  0.00    +0.000 A 
BRANCH  15  22
ATOM     21  N   UNL     1      48.078   2.808  19.282  0.00  0.00    +0.000 N 
ATOM     22  C   UNL     1      47.945   3.405  18.061  0.00  0.00    +0.000 C 
ATOM     23  O   UNL     1      46.955   3.215  17.372  0.00  0.00    +0.000 OA
ATOM     24  H   UNL     1      47.294   2.252  19.601  0.00  0.00    +0.000 HD
ATOM     25  H   UNL     1      48.746   3.117  19.974  0.00  0.00    +0.000 HD
ENDBRANCH  15  22
ENDBRANCH  14  19
ENDBRANCH   1  14
TORSDOF 5
ENDMDL
MODEL 8
REMARK VINA RESULT:    -6.770      3.044      4.137
REMARK INTER + INTRA:          -9.317
REMARK INTER:                  -8.666
REMARK INTRA:                  -0.652
REMARK UNBOUND:                -0.568
REMARK  Name = 
REMARK  5 active torsions:
REMARK  status: ('A' for Active; 'I' for Inactive)
REMARK    1  A    between atoms: C_2  and  C_4
REMARK    2  A    between atoms: C_8  and  C_9
REMARK    3  A    between atoms: C_9  and  O_10
REMARK    4  A    between atoms: O_10  and  C_11
REMARK    5  A    between atoms: C_15  and  N_16
REMARK                            x       y       z     vdW  Elec       q    Type
REMARK                         _______ _______ _______ _____ _____    ______ ____
ROOT
ATOM      1  O   UNL     1      45.942   6.456  12.756  0.00  0.00    +0.000 OA
ENDROOT
BRANCH   1   2
ATOM      2  C   UNL     1      45.266   5.356  12.302  0.00  0.00    +0.000 A 
ATOM      3  C   UNL     1      44.530   4.649  13.241  0.00  0.00    +0.000 A 
ATOM      4  N   UNL     1      43.822   3.532  12.963  0.00  0.00    +0.000 NA
ATOM      5  C   UNL     1      43.871   3.095  11.681  0.00  0.00    +0.000 A 
ATOM      6  C   UNL     1      44.593   3.690  10.643  0.00  0.00    +0.000 A 
ATOM      7  C   UNL     1      45.296   4.856  10.998  0.00  0.00    +0.000 A 
BRANCH   6   8
ATOM      8  N   UNL     1      44.614   3.214   9.345  0.00  0.00    +0.000 N 
ATOM      9  C   UNL     1      44.765   1.783   9.021  0.00  0.00    +0.000 C 
ATOM     10  C   UNL     1      46.102   1.515   8.315  0.00  0.00    +0.000 C 
ATOM     11  O   UNL     1      46.270   2.360   7.166  0.00  0.00    +0.000 OA
ATOM     12  C   UNL     1      46.243   3.741   7.559  0.00  0.00    +0.000 C 
ATOM     13  C   UNL     1      44.904   4.119   8.217  0.00  0.00    +0.000 C 
ENDBRANCH   6   8
ENDBRANCH   1   2
BRANCH   1  14
ATOM     14  C   UNL     1      47.342   6.276  12.986  0.00  0.00    +0.000 C 
BRANCH  14  19
ATOM     15  C   UNL     1      50.130   8.461  11.540  0.00  0.00    +0.000 A 
ATOM     16  C   UNL     1      49.472   9.686  11.383  0.00  0.00    +0.000 A 
ATOM     17  C   UNL     1      48.144   9.816  11.790  0.00  0.00    +0.000 A 
ATOM     18  C   UNL     1      47.463   8.724  12.332  0.00  0.00    +0.000 A 
ATOM     19  C   UNL     1      48.101   7.485  12.480  0.00  0.00    +0.000 A 
ATOM     20  C   UNL     1      49.445   7.368  12.087  0.00  0.00    +0.000 A 
BRANCH  15  22
ATOM     21  N   UNL     1      51.863   7.029  10.582  0.00  0.00    +0.000 N 
ATOM     22  C   UNL     1      51.533   8.260  11.074  0.00  0.00    +0.000 C 
ATOM     23  O   UNL     1      52.355   9.162  11.117  0.00  0.00    +0.000 OA
ATOM     24  H   UNL     1      52.799   6.929  10.208  0.00  0.00    +0.000 HD
ATOM     25  H   UNL     1      51.173   6.345  10.308  0.00  0.00    +0.000 HD
ENDBRANCH  15  22
ENDBRANCH  14  19
ENDBRANCH   1  14
TORSDOF 5
ENDMDL
MODEL 9
REMARK VINA RESULT:    -6.498      1.904      7.482
REMARK INTER + INTRA:          -8.965
REMARK INTER:                  -8.212
REMARK INTRA:                  -0.753
REMARK UNBOUND:                -0.568
REMARK  Name = 
REMARK  5 active torsions:
REMARK  status: ('A' for Active; 'I' for Inactive)
REMARK    1  A    between atoms: C_2  and  C_4
REMARK    2  A    between atoms: C_8  and  C_9
REMARK    3  A    between atoms: C_9  and  O_10
REMARK    4  A    between atoms: O_10  and  C_11
REMARK    5  A    between atoms: C_15  and  N_16
REMARK                            x       y       z     vdW  Elec       q    Type
REMARK                         _______ _______ _______ _____ _____    ______ ____
ROOT
ATOM      1  O   UNL     1      47.358   6.698  12.018  0.00  0.00    +0.000 OA
ENDROOT
BRANCH   1   2
ATOM      2  C   UNL     1      48.043   6.717  13.203  0.00  0.00    +0.000 A 
ATOM      3  C   UNL     1      49.202   7.478  13.238  0.00  0.00    +0.000 A 
ATOM      4  N   UNL     1      50.003   7.589  14.320  0.00  0.00    +0.000 NA
ATOM      5  C   UNL     1      49.630   6.885  15.416  0.00  0.00    +0.000 A 
ATOM      6  C   UNL     1      48.507   6.058  15.512  0.00  0.00    +0.000 A 
ATOM      7  C   UNL     1      47.710   5.999  14.354  0.00  0.00    +0.000 A 
BRANCH   6   8
ATOM      8  N   UNL     1      48.159   5.358  16.653  0.00  0.00    +0.000 N 
ATOM      9  C   UNL     1      48.869   5.514  17.935  0.00  0.00    +0.000 C 
ATOM     10  C   UNL     1      49.616   4.228  18.313  0.00  0.00    +0.000 C 
ATOM     11  O   UNL     1      48.741   3.088  18.304  0.00  0.00    +0.000 OA
ATOM     12  C   UNL     1      48.176   2.908  16.996  0.00  0.00    +0.000 C 
ATOM     13  C   UNL     1      47.347   4.129  16.561  0.00  0.00    +0.000 C 
ENDBRANCH   6   8
ENDBRANCH   1   2
BRANCH   1  14
ATOM     14  C   UNL     1      46.013   7.181  12.069  0.00  0.00    +0.000 C 
BRANCH  14  19
ATOM     15  C   UNL     1      44.316   4.117  10.528  0.00  0.00    +0.000 A 
ATOM     16  C   UNL     1      43.374   3.795  11.512  0.00  0.00    +0.000 A 
ATOM     17  C   UNL     1      43.257   4.597  12.648  0.00  0.00    +0.000 A 
ATOM     18  C   UNL     1      44.090   5.706  12.817  0.00  0.00    +0.000 A 
ATOM     19  C   UNL     1      45.050   6.032  11.850  0.00  0.00    +0.000 A 
ATOM     20  C   UNL     1      45.148   5.231  10.699  0.00  0.00    +0.000 A 
BRANCH  15  22
ATOM     21  N   UNL     1      44.650   1.917   9.518  0.00  0.00    +0.000 N 
ATOM     22  C   UNL     1      44.511   3.262   9.322  0.00  0.00    +0.000 C 
ATOM     23  O   UNL     1      44.533   3.740   8.198  0.00  0.00    +0.000 OA
ATOM     24  H   UNL     1      44.714   1.344   8.685  0.00  0.00    +0.000 HD
ATOM     25  H   UNL     1      44.401   1.461  10.384  0.00  0.00    +0.000 HD
ENDBRANCH  15  22
ENDBRANCH  14  19
ENDBRANCH   1  14
TORSDOF 5
ENDMDL
