MODEL 1
REMARK VINA RESULT:    -7.768      0.000      0.000
REMARK INTER + INTRA:         -15.210
REMARK INTER:                 -12.763
REMARK INTRA:                  -2.448
REMARK UNBOUND:                -2.448
REMARK  Name = 
REMARK  12 active torsions:
REMARK  status: ('A' for Active; 'I' for Inactive)
REMARK    1  A    between atoms: C_1  and  C_2
REMARK    2  A    between atoms: C_2  and  N_3
REMARK    3  A    between atoms: C_2  and  C_20
REMARK    4  A    between atoms: N_3  and  C_4
REMARK    5  A    between atoms: C_4  and  C_5
REMARK    6  A    between atoms: C_9  and  C_10
REMARK    7  A    between atoms: C_10  and  O_11
REMARK    8  A    between atoms: O_11  and  C_12
REMARK    9  A    between atoms: C_12  and  C_13
REMARK   10  A    between atoms: C_23  and  C_24
REMARK   11  A    between atoms: C_24  and  N_25
REMARK   12  A    between atoms: C_26  and  C_28
REMARK                            x       y       z     vdW  Elec       q    Type
REMARK                         _______ _______ _______ _____ _____    ______ ____
ROOT
ATOM      1  C   UNL     1      47.938   9.979  12.356  0.00  0.00    +0.000 A 
ATOM      2  C   UNL     1      48.615   8.930  11.715  0.00  0.00    +0.000 A 
ATOM      3  C   UNL     1      49.816   8.426  12.234  0.00  0.00    +0.000 A 
ATOM      4  C   UNL     1      50.354   8.948  13.418  0.00  0.00    +0.000 A 
ATOM      5  C   UNL     1      49.696  10.009  14.045  0.00  0.00    +0.000 A 
ATOM      6  C   UNL     1      48.493  10.498  13.537  0.00  0.00    +0.000 A 
ENDROOT
BRANCH   1   8
ATOM      7  C   UNL     1      46.495  12.019  11.980  0.00  0.00    +0.000 C 
ATOM      8  C   UNL     1      46.614  10.498  11.801  0.00  0.00    +0.000 C 
BRANCH   8   9
ATOM      9  N   UNL     1      45.518   9.748  12.426  0.00  0.00    +0.000 NA
ATOM     10  H   UNL     1      45.919   9.161  13.159  0.00  0.00    +0.000 HD
BRANCH   9  11
ATOM     11  C   UNL     1      44.782   8.879  11.503  0.00  0.00    +0.000 C 
BRANCH  11  12
ATOM     12  C   UNL     1      44.989   7.409  11.805  0.00  0.00    +0.000 A 
ATOM     13  C   UNL     1      45.811   7.025  12.877  0.00  0.00    +0.000 A 
ATOM     14  C   UNL     1      45.958   5.679  13.211  0.00  0.00    +0.000 A 
ATOM     15  C   UNL     1      45.279   4.699  12.486  0.00  0.00    +0.000 A 
ATOM     16  C   UNL     1      44.476   5.056  11.395  0.00  0.00    +0.000 A 
ATOM     17  C   UNL     1      44.378   6.406  11.039  0.00  0.00    +0.000 A 
BRANCH  16  18
ATOM     18  C   UNL     1      43.663   4.029  10.654  0.00  0.00    +0.000 C 
BRANCH  18  19
ATOM     19  O   UNL     1      44.560   3.230   9.886  0.00  0.00    +0.000 OA
BRANCH  19  20
ATOM     20  C   UNL     1      44.890   3.848   8.649  0.00  0.00    +0.000 C 
BRANCH  20  21
ATOM     21  C   UNL     1      45.873   2.967   7.930  0.00  0.00    +0.000 A 
ATOM     22  C   UNL     1      46.620   3.464   6.858  0.00  0.00    +0.000 A 
ATOM     23  C   UNL     1      47.515   2.621   6.220  0.00  0.00    +0.000 A 
ATOM     24  N   UNL     1      47.716   1.333   6.574  0.00  0.00    +0.000 NA
ATOM     25  C   UNL     1      46.978   0.870   7.606  0.00  0.00    +0.000 A 
ATOM     26  C   UNL     1      46.061   1.635   8.307  0.00  0.00    +0.000 A 
ENDBRANCH  20  21
ENDBRANCH  19  20
ENDBRANCH  18  19
ENDBRANCH  16  18
ENDBRANCH  11  12
ENDBRANCH   9  11
ENDBRANCH   8   9
ENDBRANCH   1   8
BRANCH   4  27
ATOM     27  C   UNL     1      51.627   8.410  14.019  0.00  0.00    +0.000 C 
BRANCH  27  28
ATOM     28  N   UNL     1      51.361   7.278  14.864  0.00  0.00    +0.000 N 
ATOM     29  C   UNL     1      51.401   7.366  16.229  0.00  0.00    +0.000 C 
ATOM     30  O   UNL     1      51.619   8.419  16.817  0.00  0.00    +0.000 OA
ATOM     31  H   UNL     1      51.472   6.369  14.431  0.00  0.00    +0.000 HD
BRANCH  29  32
ATOM     32  C   UNL     1      51.090   6.125  16.948  0.00  0.00    +0.000 A 
ATOM     33  C   UNL     1      52.065   5.495  17.709  0.00  0.00    +0.000 A 
ATOM     34  S   UNL     1      51.491   4.121  18.542  0.00  0.00    +0.000 S 
ATOM     35  C   UNL     1      49.941   4.283  17.859  0.00  0.00    +0.000 A 
ATOM     36  N   UNL     1      48.950   3.396  18.145  0.00  0.00    +0.000 NA
ATOM     37  C   UNL     1      47.835   3.628  17.538  0.00  0.00    +0.000 A 
ATOM     38  N   UNL     1      47.615   4.665  16.674  0.00  0.00    +0.000 N 
ATOM     39  C   UNL     1      48.577   5.603  16.375  0.00  0.00    +0.000 A 
ATOM     40  O   UNL     1      48.335   6.543  15.628  0.00  0.00    +0.000 OA
ATOM     41  C   UNL     1      49.854   5.383  17.026  0.00  0.00    +0.000 A 
ATOM     42  H   UNL     1      46.715   4.799  16.234  0.00  0.00    +0.000 HD
ENDBRANCH  29  32
ENDBRANCH  27  28
ENDBRANCH   4  27
TORSDOF 11
ENDMDL
MODEL 2
REMARK VINA RESULT:    -7.332      3.879      9.324
REMARK INTER + INTRA:         -14.494
REMARK INTER:                 -10.840
REMARK INTRA:                  -3.654
REMARK UNBOUND:                -2.448
REMARK  Name = 
REMARK  12 active torsions:
REMARK  status: ('A' for Active; 'I' for Inactive)
REMARK    1  A    between atoms: C_1  and  C_2
REMARK    2  A    between atoms: C_2  and  N_3
REMARK    3  A    between atoms: C_2  and  C_20
REMARK    4  A    between atoms: N_3  and  C_4
REMARK    5  A    between atoms: C_4  and  C_5
REMARK    6  A    between atoms: C_9  and  C_10
REMARK    7  A    between atoms: C_10  and  O_11
REMARK    8  A    between atoms: O_11  and  C_12
REMARK    9  A    between atoms: C_12  and  C_13
REMARK   10  A    between atoms: C_23  and  C_24
REMARK   11  A    between atoms: C_24  and  N_25
REMARK   12  A    between atoms: C_26  and  C_28
REMARK                            x       y       z     vdW  Elec       q    Type
REMARK                         _______ _______ _______ _____ _____    ______ ____
ROOT
ATOM      1  C   UNL     1      51.306   4.595  17.822  0.00  0.00    +0.000 A 
ATOM      2  C   UNL     1      50.410   5.561  17.339  0.00  0.00    +0.000 A 
ATOM      3  C   UNL     1      49.132   5.196  16.893  0.00  0.00    +0.000 A 
ATOM      4  C   UNL     1      48.716   3.859  16.940  0.00  0.00    +0.000 A 
ATOM      5  C   UNL     1      49.615   2.891  17.397  0.00  0.00    +0.000 A 
ATOM      6  C   UNL     1      50.880   3.257  17.856  0.00  0.00    +0.000 A 
ENDROOT
BRANCH   1   8
ATOM      7  C   UNL     1      53.375   3.845  19.063  0.00  0.00    +0.000 C 
ATOM      8  C   UNL     1      52.683   5.007  18.336  0.00  0.00    +0.000 C 
BRANCH   8   9
ATOM      9  N   UNL     1      52.533   6.209  19.165  0.00  0.00    +0.000 NA
ATOM     10  H   UNL     1      53.441   6.677  19.204  0.00  0.00    +0.000 HD
BRANCH   9  11
ATOM     11  C   UNL     1      52.104   5.940  20.541  0.00  0.00    +0.000 C 
BRANCH  11  12
ATOM     12  C   UNL     1      50.598   5.975  20.694  0.00  0.00    +0.000 A 
ATOM     13  C   UNL     1      49.921   4.855  21.199  0.00  0.00    +0.000 A 
ATOM     14  C   UNL     1      48.542   4.894  21.410  0.00  0.00    +0.000 A 
ATOM     15  C   UNL     1      47.824   6.057  21.128  0.00  0.00    +0.000 A 
ATOM     16  C   UNL     1      48.473   7.178  20.597  0.00  0.00    +0.000 A 
ATOM     17  C   UNL     1      49.848   7.107  20.341  0.00  0.00    +0.000 A 
BRANCH  16  18
ATOM     18  C   UNL     1      47.740   8.472  20.369  0.00  0.00    +0.000 C 
BRANCH  18  19
ATOM     19  O   UNL     1      47.295   8.491  19.015  0.00  0.00    +0.000 OA
BRANCH  19  20
ATOM     20  C   UNL     1      47.684   9.686  18.349  0.00  0.00    +0.000 C 
BRANCH  20  21
ATOM     21  C   UNL     1      48.725   9.336  17.322  0.00  0.00    +0.000 A 
ATOM     22  C   UNL     1      48.348   8.839  16.071  0.00  0.00    +0.000 A 
ATOM     23  C   UNL     1      49.338   8.525  15.153  0.00  0.00    +0.000 A 
ATOM     24  N   UNL     1      50.659   8.675  15.391  0.00  0.00    +0.000 NA
ATOM     25  C   UNL     1      51.001   9.149  16.608  0.00  0.00    +0.000 A 
ATOM     26  C   UNL     1      50.087   9.491  17.591  0.00  0.00    +0.000 A 
ENDBRANCH  20  21
ENDBRANCH  19  20
ENDBRANCH  18  19
ENDBRANCH  16  18
ENDBRANCH  11  12
ENDBRANCH   9  11
ENDBRANCH   8   9
ENDBRANCH   1   8
BRANCH   4  27
ATOM     27  C   UNL     1      47.339   3.436  16.496  0.00  0.00    +0.000 C 
BRANCH  27  28
ATOM     28  N   UNL     1      46.769   4.401  15.596  0.00  0.00    +0.000 N 
ATOM     29  C   UNL     1      46.757   4.210  14.241  0.00  0.00    +0.000 C 
ATOM     30  O   UNL     1      47.186   3.190  13.713  0.00  0.00    +0.000 OA
ATOM     31  H   UNL     1      46.686   5.344  15.956  0.00  0.00    +0.000 HD
BRANCH  29  32
ATOM     32  C   UNL     1      46.124   5.280  13.462  0.00  0.00    +0.000 A 
ATOM     33  C   UNL     1      46.785   6.485  13.265  0.00  0.00    +0.000 A 
ATOM     34  S   UNL     1      45.932   7.568  12.259  0.00  0.00    +0.000 S 
ATOM     35  C   UNL     1      44.623   6.491  12.110  0.00  0.00    +0.000 A 
ATOM     36  N   UNL     1      43.522   6.818  11.383  0.00  0.00    +0.000 NA
ATOM     37  C   UNL     1      42.599   5.917  11.377  0.00  0.00    +0.000 A 
ATOM     38  N   UNL     1      42.674   4.716  12.027  0.00  0.00    +0.000 N 
ATOM     39  C   UNL     1      43.777   4.328  12.752  0.00  0.00    +0.000 A 
ATOM     40  O   UNL     1      43.829   3.229  13.290  0.00  0.00    +0.000 OA
ATOM     41  C   UNL     1      44.842   5.312  12.798  0.00  0.00    +0.000 A 
ATOM     42  H   UNL     1      41.919   4.045  11.979  0.00  0.00    +0.000 HD
ENDBRANCH  29  32
ENDBRANCH  27  28
ENDBRANCH   4  27
TORSDOF 11
ENDMDL
MODEL 3
REMARK VINA RESULT:    -7.285      4.116     10.385
REMARK INTER + INTRA:         -14.418
REMARK INTER:                 -11.415
REMARK INTRA:                  -3.003
REMARK UNBOUND:                -2.448
REMARK  Name = 
REMARK  12 active torsions:
REMARK  status: ('A' for Active; 'I' for Inactive)
REMARK    1  A    between atoms: C_1  and  C_2
REMARK    2  A    between atoms: C_2  and  N_3
REMARK    3  A    between atoms: C_2  and  C_20
REMARK    4  A    between atoms: N_3  and  C_4
REMARK    5  A    between atoms: C_4  and  C_5
REMARK    6  A    between atoms: C_9  and  C_10
REMARK    7  A    between atoms: C_10  and  O_11
REMARK    8  A    between atoms: O_11  and  C_12
REMARK    9  A    between atoms: C_12  and  C_13
REMARK   10  A    between atoms: C_23  and  C_24
REMARK   11  A    between atoms: C_24  and  N_25
REMARK   12  A    between atoms: C_26  and  C_28
REMARK                            x       y       z     vdW  Elec       q    Type
REMARK                         _______ _______ _______ _____ _____    ______ ____
ROOT
ATOM      1  C   UNL     1      51.589   3.068  17.782  0.00  0.00    +0.000 A 
ATOM      2  C   UNL     1      50.962   4.318  17.900  0.00  0.00    +0.000 A 
ATOM      3  C   UNL     1      49.593   4.463  17.631  0.00  0.00    +0.000 A 
ATOM      4  C   UNL     1      48.819   3.356  17.260  0.00  0.00    +0.000 A 
ATOM      5  C   UNL     1      49.446   2.115  17.117  0.00  0.00    +0.000 A 
ATOM      6  C   UNL     1      50.804   1.968  17.400  0.00  0.00    +0.000 A 
ENDROOT
BRANCH   1   8
ATOM      7  C   UNL     1      53.692   1.741  17.334  0.00  0.00    +0.000 C 
ATOM      8  C   UNL     1      53.073   2.914  18.108  0.00  0.00    +0.000 C 
BRANCH   8   9
ATOM      9  N   UNL     1      53.223   2.799  19.563  0.00  0.00    +0.000 NA
ATOM     10  H   UNL     1      52.288   2.717  19.968  0.00  0.00    +0.000 HD
BRANCH   9  11
ATOM     11  C   UNL     1      53.887   3.945  20.191  0.00  0.00    +0.000 C 
BRANCH  11  12
ATOM     12  C   UNL     1      52.912   5.038  20.577  0.00  0.00    +0.000 A 
ATOM     13  C   UNL     1      53.141   6.357  20.156  0.00  0.00    +0.000 A 
ATOM     14  C   UNL     1      52.218   7.364  20.445  0.00  0.00    +0.000 A 
ATOM     15  C   UNL     1      51.052   7.063  21.149  0.00  0.00    +0.000 A 
ATOM     16  C   UNL     1      50.816   5.760  21.603  0.00  0.00    +0.000 A 
ATOM     17  C   UNL     1      51.774   4.771  21.352  0.00  0.00    +0.000 A 
BRANCH  16  18
ATOM     18  C   UNL     1      49.527   5.390  22.285  0.00  0.00    +0.000 C 
BRANCH  18  19
ATOM     19  O   UNL     1      48.572   5.072  21.276  0.00  0.00    +0.000 OA
BRANCH  19  20
ATOM     20  C   UNL     1      47.354   5.784  21.458  0.00  0.00    +0.000 C 
BRANCH  20  21
ATOM     21  C   UNL     1      47.448   7.080  20.701  0.00  0.00    +0.000 A 
ATOM     22  C   UNL     1      47.320   8.302  21.367  0.00  0.00    +0.000 A 
ATOM     23  C   UNL     1      47.410   9.474  20.634  0.00  0.00    +0.000 A 
ATOM     24  N   UNL     1      47.619   9.511  19.300  0.00  0.00    +0.000 NA
ATOM     25  C   UNL     1      47.730   8.320  18.674  0.00  0.00    +0.000 A 
ATOM     26  C   UNL     1      47.657   7.096  19.320  0.00  0.00    +0.000 A 
ENDBRANCH  20  21
ENDBRANCH  19  20
ENDBRANCH  18  19
ENDBRANCH  16  18
ENDBRANCH  11  12
ENDBRANCH   9  11
ENDBRANCH   8   9
ENDBRANCH   1   8
BRANCH   4  27
ATOM     27  C   UNL     1      47.341   3.471  16.993  0.00  0.00    +0.000 C 
BRANCH  27  28
ATOM     28  N   UNL     1      47.073   4.468  15.993  0.00  0.00    +0.000 N 
ATOM     29  C   UNL     1      47.112   4.182  14.655  0.00  0.00    +0.000 C 
ATOM     30  O   UNL     1      47.329   3.055  14.226  0.00  0.00    +0.000 OA
ATOM     31  H   UNL     1      47.185   5.430  16.289  0.00  0.00    +0.000 HD
BRANCH  29  32
ATOM     32  C   UNL     1      46.800   5.305  13.764  0.00  0.00    +0.000 A 
ATOM     33  C   UNL     1      47.723   6.324  13.575  0.00  0.00    +0.000 A 
ATOM     34  S   UNL     1      47.220   7.491  12.436  0.00  0.00    +0.000 S 
ATOM     35  C   UNL     1      45.725   6.710  12.209  0.00  0.00    +0.000 A 
ATOM     36  N   UNL     1      44.790   7.212  11.359  0.00  0.00    +0.000 NA
ATOM     37  C   UNL     1      43.696   6.530  11.304  0.00  0.00    +0.000 A 
ATOM     38  N   UNL     1      43.449   5.390  12.018  0.00  0.00    +0.000 N 
ATOM     39  C   UNL     1      44.373   4.828  12.869  0.00  0.00    +0.000 A 
ATOM     40  O   UNL     1      44.135   3.784  13.464  0.00  0.00    +0.000 OA
ATOM     41  C   UNL     1      45.619   5.562  12.973  0.00  0.00    +0.000 A 
ATOM     42  H   UNL     1      42.572   4.894  11.927  0.00  0.00    +0.000 HD
ENDBRANCH  29  32
ENDBRANCH  27  28
ENDBRANCH   4  27
TORSDOF 11
ENDMDL
MODEL 4
REMARK VINA RESULT:    -7.268      2.922      8.235
REMARK INTER + INTRA:         -14.390
REMARK INTER:                 -10.953
REMARK INTRA:                  -3.438
REMARK UNBOUND:                -2.448
REMARK  Name = 
REMARK  12 active torsions:
REMARK  status: ('A' for Active; 'I' for Inactive)
REMARK    1  A    between atoms: C_1  and  C_2
REMARK    2  A    between atoms: C_2  and  N_3
REMARK    3  A    between atoms: C_2  and  C_20
REMARK    4  A    between atoms: N_3  and  C_4
REMARK    5  A    between atoms: C_4  and  C_5
REMARK    6  A    between atoms: C_9  and  C_10
REMARK    7  A    between atoms: C_10  and  O_11
REMARK    8  A    between atoms: O_11  and  C_12
REMARK    9  A    between atoms: C_12  and  C_13
REMARK   10  A    between atoms: C_23  and  C_24
REMARK   11  A    between atoms: C_24  and  N_25
REMARK   12  A    between atoms: C_26  and  C_28
REMARK                            x       y       z     vdW  Elec       q    Type
REMARK                         _______ _______ _______ _____ _____    ______ ____
ROOT
ATOM      1  C   UNL     1      50.790   7.703  14.936  0.00  0.00    +0.000 A 
ATOM      2  C   UNL     1      50.608   8.679  13.945  0.00  0.00    +0.000 A 
ATOM      3  C   UNL     1      49.373   8.820  13.295  0.00  0.00    +0.000 A 
ATOM      4  C   UNL     1      48.289   8.002  13.639  0.00  0.00    +0.000 A 
ATOM      5  C   UNL     1      48.475   7.012  14.608  0.00  0.00    +0.000 A 
ATOM      6  C   UNL     1      49.698   6.884  15.266  0.00  0.00    +0.000 A 
ENDROOT
BRANCH   1   8
ATOM      7  C   UNL     1      52.160   6.332  16.557  0.00  0.00    +0.000 C 
ATOM      8  C   UNL     1      52.128   7.579  15.661  0.00  0.00    +0.000 C 
BRANCH   8   9
ATOM      9  N   UNL     1      52.385   8.828  16.387  0.00  0.00    +0.000 NA
ATOM     10  H   UNL     1      53.391   9.004  16.361  0.00  0.00    +0.000 HD
BRANCH   9  11
ATOM     11  C   UNL     1      51.968   8.802  17.792  0.00  0.00    +0.000 C 
BRANCH  11  12
ATOM     12  C   UNL     1      50.474   8.998  17.955  0.00  0.00    +0.000 A 
ATOM     13  C   UNL     1      49.848  10.110  17.372  0.00  0.00    +0.000 A 
ATOM     14  C   UNL     1      48.464  10.269  17.455  0.00  0.00    +0.000 A 
ATOM     15  C   UNL     1      47.688   9.315  18.112  0.00  0.00    +0.000 A 
ATOM     16  C   UNL     1      48.293   8.211  18.725  0.00  0.00    +0.000 A 
ATOM     17  C   UNL     1      49.687   8.091  18.680  0.00  0.00    +0.000 A 
BRANCH  16  18
ATOM     18  C   UNL     1      47.473   7.122  19.362  0.00  0.00    +0.000 C 
BRANCH  18  19
ATOM     19  O   UNL     1      48.118   5.878  19.102  0.00  0.00    +0.000 OA
BRANCH  19  20
ATOM     20  C   UNL     1      47.398   5.098  18.155  0.00  0.00    +0.000 C 
BRANCH  20  21
ATOM     21  C   UNL     1      48.321   4.038  17.620  0.00  0.00    +0.000 A 
ATOM     22  C   UNL     1      47.838   3.046  16.761  0.00  0.00    +0.000 A 
ATOM     23  C   UNL     1      48.719   2.085  16.290  0.00  0.00    +0.000 A 
ATOM     24  N   UNL     1      50.031   2.048  16.609  0.00  0.00    +0.000 NA
ATOM     25  C   UNL     1      50.474   3.011  17.446  0.00  0.00    +0.000 A 
ATOM     26  C   UNL     1      49.673   4.013  17.967  0.00  0.00    +0.000 A 
ENDBRANCH  20  21
ENDBRANCH  19  20
ENDBRANCH  18  19
ENDBRANCH  16  18
ENDBRANCH  11  12
ENDBRANCH   9  11
ENDBRANCH   8   9
ENDBRANCH   1   8
BRANCH   4  27
ATOM     27  C   UNL     1      46.941   8.147  12.981  0.00  0.00    +0.000 C 
BRANCH  27  28
ATOM     28  N   UNL     1      46.362   6.861  12.703  0.00  0.00    +0.000 N 
ATOM     29  C   UNL     1      45.216   6.726  11.966  0.00  0.00    +0.000 C 
ATOM     30  O   UNL     1      44.638   7.681  11.461  0.00  0.00    +0.000 OA
ATOM     31  H   UNL     1      46.630   6.112  13.330  0.00  0.00    +0.000 HD
BRANCH  29  32
ATOM     32  C   UNL     1      44.763   5.346  11.758  0.00  0.00    +0.000 A 
ATOM     33  C   UNL     1      44.099   4.668  12.771  0.00  0.00    +0.000 A 
ATOM     34  S   UNL     1      43.570   3.112  12.311  0.00  0.00    +0.000 S 
ATOM     35  C   UNL     1      44.271   3.266  10.768  0.00  0.00    +0.000 A 
ATOM     36  N   UNL     1      44.202   2.257   9.860  0.00  0.00    +0.000 NA
ATOM     37  C   UNL     1      44.797   2.503   8.741  0.00  0.00    +0.000 A 
ATOM     38  N   UNL     1      45.453   3.665   8.444  0.00  0.00    +0.000 N 
ATOM     39  C   UNL     1      45.527   4.725   9.319  0.00  0.00    +0.000 A 
ATOM     40  O   UNL     1      46.088   5.768   9.007  0.00  0.00    +0.000 OA
ATOM     41  C   UNL     1      44.880   4.496  10.596  0.00  0.00    +0.000 A 
ATOM     42  H   UNL     1      45.895   3.803   7.545  0.00  0.00    +0.000 HD
ENDBRANCH  29  32
ENDBRANCH  27  28
ENDBRANCH   4  27
TORSDOF 11
ENDMDL
MODEL 5
REMARK VINA RESULT:    -7.119      2.614      7.997
REMARK INTER + INTRA:         -14.145
REMARK INTER:                 -11.314
REMARK INTRA:                  -2.831
REMARK UNBOUND:                -2.448
REMARK  Name = 
REMARK  12 active torsions:
REMARK  status: ('A' for Active; 'I' for Inactive)
REMARK    1  A    between atoms: C_1  and  C_2
REMARK    2  A    between atoms: C_2  and  N_3
REMARK    3  A    between atoms: C_2  and  C_20
REMARK    4  A    between atoms: N_3  and  C_4
REMARK    5  A    between atoms: C_4  and  C_5
REMARK    6  A    between atoms: C_9  and  C_10
REMARK    7  A    between atoms: C_10  and  O_11
REMARK    8  A    between atoms: O_11  and  C_12
REMARK    9  A    between atoms: C_12  and  C_13
REMARK   10  A    between atoms: C_23  and  C_24
REMARK   11  A    between atoms: C_24  and  N_25
REMARK   12  A    between atoms: C_26  and  C_28
REMARK                            x       y       z     vdW  Elec       q    Type
REMARK                         _______ _______ _______ _____ _____    ______ ____
ROOT
ATOM      1  C   UNL     1      50.434   8.861  11.732  0.00  0.00    +0.000 A 
ATOM      2  C   UNL     1      49.639   9.970  12.058  0.00  0.00    +0.000 A 
ATOM      3  C   UNL     1      48.272   9.817  12.335  0.00  0.00    +0.000 A 
ATOM      4  C   UNL     1      47.679   8.548  12.313  0.00  0.00    +0.000 A 
ATOM      5  C   UNL     1      48.463   7.445  11.964  0.00  0.00    +0.000 A 
ATOM      6  C   UNL     1      49.825   7.596  11.705  0.00  0.00    +0.000 A 
ENDROOT
BRANCH   1   8
ATOM      7  C   UNL     1      52.234   8.949   9.961  0.00  0.00    +0.000 C 
ATOM      8  C   UNL     1      51.927   9.034  11.464  0.00  0.00    +0.000 C 
BRANCH   8   9
ATOM      9  N   UNL     1      52.664   8.052  12.267  0.00  0.00    +0.000 NA
ATOM     10  H   UNL     1      52.044   7.258  12.437  0.00  0.00    +0.000 HD
BRANCH   9  11
ATOM     11  C   UNL     1      53.117   8.557  13.567  0.00  0.00    +0.000 C 
BRANCH  11  12
ATOM     12  C   UNL     1      51.973   8.754  14.540  0.00  0.00    +0.000 A 
ATOM     13  C   UNL     1      51.727  10.025  15.081  0.00  0.00    +0.000 A 
ATOM     14  C   UNL     1      50.637  10.238  15.926  0.00  0.00    +0.000 A 
ATOM     15  C   UNL     1      49.774   9.187  16.233  0.00  0.00    +0.000 A 
ATOM     16  C   UNL     1      50.014   7.903  15.728  0.00  0.00    +0.000 A 
ATOM     17  C   UNL     1      51.140   7.692  14.924  0.00  0.00    +0.000 A 
BRANCH  16  18
ATOM     18  C   UNL     1      49.050   6.774  15.970  0.00  0.00    +0.000 C 
BRANCH  18  19
ATOM     19  O   UNL     1      48.916   6.605  17.378  0.00  0.00    +0.000 OA
BRANCH  19  20
ATOM     20  C   UNL     1      48.070   5.509  17.701  0.00  0.00    +0.000 C 
BRANCH  20  21
ATOM     21  C   UNL     1      48.797   4.237  17.361  0.00  0.00    +0.000 A 
ATOM     22  C   UNL     1      50.126   4.054  17.750  0.00  0.00    +0.000 A 
ATOM     23  C   UNL     1      50.762   2.869  17.416  0.00  0.00    +0.000 A 
ATOM     24  N   UNL     1      50.170   1.865  16.733  0.00  0.00    +0.000 NA
ATOM     25  C   UNL     1      48.888   2.066  16.358  0.00  0.00    +0.000 A 
ATOM     26  C   UNL     1      48.169   3.214  16.646  0.00  0.00    +0.000 A 
ENDBRANCH  20  21
ENDBRANCH  19  20
ENDBRANCH  18  19
ENDBRANCH  16  18
ENDBRANCH  11  12
ENDBRANCH   9  11
ENDBRANCH   8   9
ENDBRANCH   1   8
BRANCH   4  27
ATOM     27  C   UNL     1      46.221   8.344  12.635  0.00  0.00    +0.000 C 
BRANCH  27  28
ATOM     28  N   UNL     1      45.825   6.984  12.395  0.00  0.00    +0.000 N 
ATOM     29  C   UNL     1      44.703   6.671  11.675  0.00  0.00    +0.000 C 
ATOM     30  O   UNL     1      43.995   7.523  11.152  0.00  0.00    +0.000 OA
ATOM     31  H   UNL     1      46.199   6.296  13.038  0.00  0.00    +0.000 HD
BRANCH  29  32
ATOM     32  C   UNL     1      44.446   5.236  11.507  0.00  0.00    +0.000 A 
ATOM     33  C   UNL     1      43.778   4.525  12.494  0.00  0.00    +0.000 A 
ATOM     34  S   UNL     1      43.491   2.895  12.079  0.00  0.00    +0.000 S 
ATOM     35  C   UNL     1      44.309   3.068  10.597  0.00  0.00    +0.000 A 
ATOM     36  N   UNL     1      44.451   2.018   9.745  0.00  0.00    +0.000 NA
ATOM     37  C   UNL     1      45.114   2.287   8.671  0.00  0.00    +0.000 A 
ATOM     38  N   UNL     1      45.647   3.509   8.367  0.00  0.00    +0.000 N 
ATOM     39  C   UNL     1      45.507   4.608   9.183  0.00  0.00    +0.000 A 
ATOM     40  O   UNL     1      45.962   5.699   8.863  0.00  0.00    +0.000 OA
ATOM     41  C   UNL     1      44.775   4.356  10.410  0.00  0.00    +0.000 A 
ATOM     42  H   UNL     1      46.152   3.661   7.504  0.00  0.00    +0.000 HD
ENDBRANCH  29  32
ENDBRANCH  27  28
ENDBRANCH   4  27
TORSDOF 11
ENDMDL
MODEL 6
REMARK VINA RESULT:    -6.961      3.811      9.320
REMARK INTER + INTRA:         -13.885
REMARK INTER:                 -10.432
REMARK INTRA:                  -3.453
REMARK UNBOUND:                -2.448
REMARK  Name = 
REMARK  12 active torsions:
REMARK  status: ('A' for Active; 'I' for Inactive)
REMARK    1  A    between atoms: C_1  and  C_2
REMARK    2  A    between atoms: C_2  and  N_3
REMARK    3  A    between atoms: C_2  and  C_20
REMARK    4  A    between atoms: N_3  and  C_4
REMARK    5  A    between atoms: C_4  and  C_5
REMARK    6  A    between atoms: C_9  and  C_10
REMARK    7  A    between atoms: C_10  and  O_11
REMARK    8  A    between atoms: O_11  and  C_12
REMARK    9  A    between atoms: C_12  and  C_13
REMARK   10  A    between atoms: C_23  and  C_24
REMARK   11  A    between atoms: C_24  and  N_25
REMARK   12  A    between atoms: C_26  and  C_28
REMARK                            x       y       z     vdW  Elec       q    Type
REMARK                         _______ _______ _______ _____ _____    ______ ____
ROOT
ATOM      1  C   UNL     1      48.381   5.283  20.277  0.00  0.00    +0.000 A 
ATOM      2  C   UNL     1      47.744   6.038  19.281  0.00  0.00    +0.000 A 
ATOM      3  C   UNL     1      47.476   5.483  18.021  0.00  0.00    +0.000 A 
ATOM      4  C   UNL     1      47.820   4.154  17.741  0.00  0.00    +0.000 A 
ATOM      5  C   UNL     1      48.478   3.408  18.722  0.00  0.00    +0.000 A 
ATOM      6  C   UNL     1      48.729   3.956  19.980  0.00  0.00    +0.000 A 
ENDROOT
BRANCH   1   8
ATOM      7  C   UNL     1      48.241   7.370  21.696  0.00  0.00    +0.000 C 
ATOM      8  C   UNL     1      48.640   5.887  21.656  0.00  0.00    +0.000 C 
BRANCH   8   9
ATOM      9  N   UNL     1      50.043   5.649  22.015  0.00  0.00    +0.000 NA
ATOM     10  H   UNL     1      50.142   5.819  23.018  0.00  0.00    +0.000 HD
BRANCH   9  11
ATOM     11  C   UNL     1      50.997   6.513  21.315  0.00  0.00    +0.000 C 
BRANCH  11  12
ATOM     12  C   UNL     1      51.588   5.847  20.089  0.00  0.00    +0.000 A 
ATOM     13  C   UNL     1      52.256   4.619  20.215  0.00  0.00    +0.000 A 
ATOM     14  C   UNL     1      52.746   3.959  19.088  0.00  0.00    +0.000 A 
ATOM     15  C   UNL     1      52.567   4.513  17.820  0.00  0.00    +0.000 A 
ATOM     16  C   UNL     1      51.928   5.750  17.671  0.00  0.00    +0.000 A 
ATOM     17  C   UNL     1      51.488   6.426  18.815  0.00  0.00    +0.000 A 
BRANCH  16  18
ATOM     18  C   UNL     1      51.643   6.325  16.311  0.00  0.00    +0.000 C 
BRANCH  18  19
ATOM     19  O   UNL     1      50.230   6.326  16.122  0.00  0.00    +0.000 OA
BRANCH  19  20
ATOM     20  C   UNL     1      49.842   7.170  15.046  0.00  0.00    +0.000 C 
BRANCH  20  21
ATOM     21  C   UNL     1      49.447   8.506  15.612  0.00  0.00    +0.000 A 
ATOM     22  C   UNL     1      48.919   8.601  16.903  0.00  0.00    +0.000 A 
ATOM     23  C   UNL     1      48.566   9.850  17.388  0.00  0.00    +0.000 A 
ATOM     24  N   UNL     1      48.704  10.995  16.686  0.00  0.00    +0.000 NA
ATOM     25  C   UNL     1      49.208  10.880  15.439  0.00  0.00    +0.000 A 
ATOM     26  C   UNL     1      49.591   9.678  14.867  0.00  0.00    +0.000 A 
ENDBRANCH  20  21
ENDBRANCH  19  20
ENDBRANCH  18  19
ENDBRANCH  16  18
ENDBRANCH  11  12
ENDBRANCH   9  11
ENDBRANCH   8   9
ENDBRANCH   1   8
BRANCH   4  27
ATOM     27  C   UNL     1      47.519   3.517  16.408  0.00  0.00    +0.000 C 
BRANCH  27  28
ATOM     28  N   UNL     1      46.907   4.460  15.513  0.00  0.00    +0.000 N 
ATOM     29  C   UNL     1      46.714   4.180  14.186  0.00  0.00    +0.000 C 
ATOM     30  O   UNL     1      47.005   3.099  13.690  0.00  0.00    +0.000 OA
ATOM     31  H   UNL     1      46.932   5.429  15.808  0.00  0.00    +0.000 HD
BRANCH  29  32
ATOM     32  C   UNL     1      46.062   5.241  13.410  0.00  0.00    +0.000 A 
ATOM     33  C   UNL     1      46.714   6.446  13.188  0.00  0.00    +0.000 A 
ATOM     34  S   UNL     1      45.837   7.517  12.189  0.00  0.00    +0.000 S 
ATOM     35  C   UNL     1      44.529   6.434  12.077  0.00  0.00    +0.000 A 
ATOM     36  N   UNL     1      43.413   6.750  11.369  0.00  0.00    +0.000 NA
ATOM     37  C   UNL     1      42.493   5.845  11.390  0.00  0.00    +0.000 A 
ATOM     38  N   UNL     1      42.585   4.652  12.051  0.00  0.00    +0.000 N 
ATOM     39  C   UNL     1      43.704   4.275  12.757  0.00  0.00    +0.000 A 
ATOM     40  O   UNL     1      43.770   3.181  13.305  0.00  0.00    +0.000 OA
ATOM     41  C   UNL     1      44.766   5.262  12.772  0.00  0.00    +0.000 A 
ATOM     42  H   UNL     1      41.831   3.978  12.024  0.00  0.00    +0.000 HD
ENDBRANCH  29  32
ENDBRANCH  27  28
ENDBRANCH   4  27
TORSDOF 11
ENDMDL
MODEL 7
REMARK VINA RESULT:    -6.639      3.685      8.685
REMARK INTER + INTRA:         -13.356
REMARK INTER:                 -10.464
REMARK INTRA:                  -2.892
REMARK UNBOUND:                -2.448
REMARK  Name = 
REMARK  12 active torsions:
REMARK  status: ('A' for Active; 'I' for Inactive)
REMARK    1  A    between atoms: C_1  and  C_2
REMARK    2  A    between atoms: C_2  and  N_3
REMARK    3  A    between atoms: C_2  and  C_20
REMARK    4  A    between atoms: N_3  and  C_4
REMARK    5  A    between atoms: C_4  and  C_5
REMARK    6  A    between atoms: C_9  and  C_10
REMARK    7  A    between atoms: C_10  and  O_11
REMARK    8  A    between atoms: O_11  and  C_12
REMARK    9  A    between atoms: C_12  and  C_13
REMARK   10  A    between atoms: C_23  and  C_24
REMARK   11  A    between atoms: C_24  and  N_25
REMARK   12  A    between atoms: C_26  and  C_28
REMARK                            x       y       z     vdW  Elec       q    Type
REMARK                         _______ _______ _______ _____ _____    ______ ____
ROOT
ATOM      1  C   UNL     1      48.345   5.321  20.243  0.00  0.00    +0.000 A 
ATOM      2  C   UNL     1      47.290   5.802  19.452  0.00  0.00    +0.000 A 
ATOM      3  C   UNL     1      47.025   5.244  18.193  0.00  0.00    +0.000 A 
ATOM      4  C   UNL     1      47.796   4.179  17.709  0.00  0.00    +0.000 A 
ATOM      5  C   UNL     1      48.863   3.715  18.483  0.00  0.00    +0.000 A 
ATOM      6  C   UNL     1      49.116   4.260  19.742  0.00  0.00    +0.000 A 
ENDROOT
BRANCH   1   8
ATOM      7  C   UNL     1      47.300   6.386  22.282  0.00  0.00    +0.000 C 
ATOM      8  C   UNL     1      48.606   5.913  21.626  0.00  0.00    +0.000 C 
BRANCH   8   9
ATOM      9  N   UNL     1      49.613   6.974  21.499  0.00  0.00    +0.000 NA
ATOM     10  H   UNL     1      50.308   6.834  22.234  0.00  0.00    +0.000 HD
BRANCH   9  11
ATOM     11  C   UNL     1      49.077   8.331  21.637  0.00  0.00    +0.000 C 
BRANCH  11  12
ATOM     12  C   UNL     1      48.826   8.992  20.297  0.00  0.00    +0.000 A 
ATOM     13  C   UNL     1      47.766   9.901  20.155  0.00  0.00    +0.000 A 
ATOM     14  C   UNL     1      47.562  10.570  18.948  0.00  0.00    +0.000 A 
ATOM     15  C   UNL     1      48.420  10.347  17.871  0.00  0.00    +0.000 A 
ATOM     16  C   UNL     1      49.468   9.424  17.980  0.00  0.00    +0.000 A 
ATOM     17  C   UNL     1      49.629   8.721  19.180  0.00  0.00    +0.000 A 
BRANCH  16  18
ATOM     18  C   UNL     1      50.460   9.231  16.866  0.00  0.00    +0.000 C 
BRANCH  18  19
ATOM     19  O   UNL     1      50.369   7.879  16.425  0.00  0.00    +0.000 OA
BRANCH  19  20
ATOM     20  C   UNL     1      49.159   7.635  15.719  0.00  0.00    +0.000 C 
BRANCH  20  21
ATOM     21  C   UNL     1      49.228   8.359  14.403  0.00  0.00    +0.000 A 
ATOM     22  C   UNL     1      48.409   9.465  14.159  0.00  0.00    +0.000 A 
ATOM     23  C   UNL     1      48.500  10.105  12.933  0.00  0.00    +0.000 A 
ATOM     24  N   UNL     1      49.343   9.726  11.948  0.00  0.00    +0.000 NA
ATOM     25  C   UNL     1      50.119   8.649  12.201  0.00  0.00    +0.000 A 
ATOM     26  C   UNL     1      50.101   7.946  13.394  0.00  0.00    +0.000 A 
ENDBRANCH  20  21
ENDBRANCH  19  20
ENDBRANCH  18  19
ENDBRANCH  16  18
ENDBRANCH  11  12
ENDBRANCH   9  11
ENDBRANCH   8   9
ENDBRANCH   1   8
BRANCH   4  27
ATOM     27  C   UNL     1      47.520   3.537  16.374  0.00  0.00    +0.000 C 
BRANCH  27  28
ATOM     28  N   UNL     1      46.919   4.475  15.466  0.00  0.00    +0.000 N 
ATOM     29  C   UNL     1      46.670   4.159  14.157  0.00  0.00    +0.000 C 
ATOM     30  O   UNL     1      46.897   3.050  13.690  0.00  0.00    +0.000 OA
ATOM     31  H   UNL     1      46.995   5.451  15.725  0.00  0.00    +0.000 HD
BRANCH  29  32
ATOM     32  C   UNL     1      46.038   5.221  13.365  0.00  0.00    +0.000 A 
ATOM     33  C   UNL     1      46.725   6.397  13.098  0.00  0.00    +0.000 A 
ATOM     34  S   UNL     1      45.866   7.469  12.087  0.00  0.00    +0.000 S 
ATOM     35  C   UNL     1      44.520   6.429  12.029  0.00  0.00    +0.000 A 
ATOM     36  N   UNL     1      43.401   6.765  11.335  0.00  0.00    +0.000 NA
ATOM     37  C   UNL     1      42.451   5.893  11.398  0.00  0.00    +0.000 A 
ATOM     38  N   UNL     1      42.517   4.715  12.089  0.00  0.00    +0.000 N 
ATOM     39  C   UNL     1      43.637   4.318  12.784  0.00  0.00    +0.000 A 
ATOM     40  O   UNL     1      43.677   3.238  13.359  0.00  0.00    +0.000 OA
ATOM     41  C   UNL     1      44.731   5.269  12.751  0.00  0.00    +0.000 A 
ATOM     42  H   UNL     1      41.741   4.066  12.095  0.00  0.00    +0.000 HD
ENDBRANCH  29  32
ENDBRANCH  27  28
ENDBRANCH   4  27
TORSDOF 11
ENDMDL
MODEL 8
REMARK VINA RESULT:    -6.433      2.774      4.825
REMARK INTER + INTRA:         -13.017
REMARK INTER:                 -10.519
REMARK INTRA:                  -2.498
REMARK UNBOUND:                -2.448
REMARK  Name = 
REMARK  12 active torsions:
REMARK  status: ('A' for Active; 'I' for Inactive)
REMARK    1  A    between atoms: C_1  and  C_2
REMARK    2  A    between atoms: C_2  and  N_3
REMARK    3  A    between atoms: C_2  and  C_20
REMARK    4  A    between atoms: N_3  and  C_4
REMARK    5  A    between atoms: C_4  and  C_5
REMARK    6  A    between atoms: C_9  and  C_10
REMARK    7  A    between atoms: C_10  and  O_11
REMARK    8  A    between atoms: O_11  and  C_12
REMARK    9  A    between atoms: C_12  and  C_13
REMARK   10  A    between atoms: C_23  and  C_24
REMARK   11  A    between atoms: C_24  and  N_25
REMARK   12  A    between atoms: C_26  and  C_28
REMARK                            x       y       z     vdW  Elec       q    Type
REMARK                         _______ _______ _______ _____ _____    ______ ____
ROOT
ATOM      1  C   UNL     1      50.284   8.564  12.147  0.00  0.00    +0.000 A 
ATOM      2  C   UNL     1      49.300   7.818  11.480  0.00  0.00    +0.000 A 
ATOM      3  C   UNL     1      48.488   6.914  12.180  0.00  0.00    +0.000 A 
ATOM      4  C   UNL     1      48.630   6.753  13.565  0.00  0.00    +0.000 A 
ATOM      5  C   UNL     1      49.626   7.477  14.227  0.00  0.00    +0.000 A 
ATOM      6  C   UNL     1      50.421   8.388  13.533  0.00  0.00    +0.000 A 
ENDROOT
BRANCH   1   8
ATOM      7  C   UNL     1      52.151  10.259  12.311  0.00  0.00    +0.000 C 
ATOM      8  C   UNL     1      51.140   9.570  11.382  0.00  0.00    +0.000 C 
BRANCH   8   9
ATOM      9  N   UNL     1      50.251  10.509  10.687  0.00  0.00    +0.000 NA
ATOM     10  H   UNL     1      50.830  11.104  10.090  0.00  0.00    +0.000 HD
BRANCH   9  11
ATOM     11  C   UNL     1      49.482  11.380  11.580  0.00  0.00    +0.000 C 
BRANCH  11  12
ATOM     12  C   UNL     1      48.016  11.445  11.201  0.00  0.00    +0.000 A 
ATOM     13  C   UNL     1      47.612  12.228  10.109  0.00  0.00    +0.000 A 
ATOM     14  C   UNL     1      46.276  12.247   9.705  0.00  0.00    +0.000 A 
ATOM     15  C   UNL     1      45.330  11.475  10.380  0.00  0.00    +0.000 A 
ATOM     16  C   UNL     1      45.705  10.707  11.490  0.00  0.00    +0.000 A 
ATOM     17  C   UNL     1      47.038  10.739  11.917  0.00  0.00    +0.000 A 
BRANCH  16  18
ATOM     18  C   UNL     1      44.725   9.798  12.180  0.00  0.00    +0.000 C 
BRANCH  18  19
ATOM     19  O   UNL     1      44.690   8.566  11.463  0.00  0.00    +0.000 OA
BRANCH  19  20
ATOM     20  C   UNL     1      45.055   7.466  12.287  0.00  0.00    +0.000 C 
BRANCH  20  21
ATOM     21  C   UNL     1      44.650   6.198  11.587  0.00  0.00    +0.000 A 
ATOM     22  C   UNL     1      43.497   5.510  11.975  0.00  0.00    +0.000 A 
ATOM     23  C   UNL     1      43.160   4.344  11.306  0.00  0.00    +0.000 A 
ATOM     24  N   UNL     1      43.880   3.826  10.288  0.00  0.00    +0.000 NA
ATOM     25  C   UNL     1      44.995   4.502   9.935  0.00  0.00    +0.000 A 
ATOM     26  C   UNL     1      45.414   5.675  10.541  0.00  0.00    +0.000 A 
ENDBRANCH  20  21
ENDBRANCH  19  20
ENDBRANCH  18  19
ENDBRANCH  16  18
ENDBRANCH  11  12
ENDBRANCH   9  11
ENDBRANCH   8   9
ENDBRANCH   1   8
BRANCH   4  27
ATOM     27  C   UNL     1      47.755   5.812  14.352  0.00  0.00    +0.000 C 
BRANCH  27  28
ATOM     28  N   UNL     1      48.033   5.905  15.759  0.00  0.00    +0.000 N 
ATOM     29  C   UNL     1      47.582   4.969  16.651  0.00  0.00    +0.000 C 
ATOM     30  O   UNL     1      46.956   3.974  16.304  0.00  0.00    +0.000 OA
ATOM     31  H   UNL     1      48.273   6.828  16.101  0.00  0.00    +0.000 HD
BRANCH  29  32
ATOM     32  C   UNL     1      47.963   5.199  18.049  0.00  0.00    +0.000 A 
ATOM     33  C   UNL     1      47.052   5.747  18.941  0.00  0.00    +0.000 A 
ATOM     34  S   UNL     1      47.647   5.852  20.537  0.00  0.00    +0.000 S 
ATOM     35  C   UNL     1      49.163   5.233  20.075  0.00  0.00    +0.000 A 
ATOM     36  N   UNL     1      50.167   5.083  20.980  0.00  0.00    +0.000 NA
ATOM     37  C   UNL     1      51.268   4.625  20.485  0.00  0.00    +0.000 A 
ATOM     38  N   UNL     1      51.459   4.301  19.171  0.00  0.00    +0.000 N 
ATOM     39  C   UNL     1      50.466   4.409  18.223  0.00  0.00    +0.000 A 
ATOM     40  O   UNL     1      50.658   4.073  17.062  0.00  0.00    +0.000 OA
ATOM     41  C   UNL     1      49.210   4.928  18.728  0.00  0.00    +0.000 A 
ATOM     42  H   UNL     1      52.344   3.939  18.843  0.00  0.00    +0.000 HD
ENDBRANCH  29  32
ENDBRANCH  27  28
ENDBRANCH   4  27
TORSDOF 11
ENDMDL
MODEL 9
REMARK VINA RESULT:    -5.451      3.835      9.044
REMARK INTER + INTRA:         -11.405
REMARK INTER:                  -8.311
REMARK INTRA:                  -3.093
REMARK UNBOUND:                -2.448
REMARK  Name = 
REMARK  12 active torsions:
REMARK  status: ('A' for Active; 'I' for Inactive)
REMARK    1  A    between atoms: C_1  and  C_2
REMARK    2  A    between atoms: C_2  and  N_3
REMARK    3  A    between atoms: C_2  and  C_20
REMARK    4  A    between atoms: N_3  and  C_4
REMARK    5  A    between atoms: C_4  and  C_5
REMARK    6  A    between atoms: C_9  and  C_10
REMARK    7  A    between atoms: C_10  and  O_11
REMARK    8  A    between atoms: O_11  and  C_12
REMARK    9  A    between atoms: C_12  and  C_13
REMARK   10  A    between atoms: C_23  and  C_24
REMARK   11  A    between atoms: C_24  and  N_25
REMARK   12  A    between atoms: C_26  and  C_28
REMARK                            x       y       z     vdW  Elec       q    Type
REMARK                         _______ _______ _______ _____ _____    ______ ____
ROOT
ATOM      1  C   UNL     1      48.635   5.175  20.022  0.00  0.00    +0.000 A 
ATOM      2  C   UNL     1      47.493   5.655  19.362  0.00  0.00    +0.000 A 
ATOM      3  C   UNL     1      47.085   5.101  18.140  0.00  0.00    +0.000 A 
ATOM      4  C   UNL     1      47.798   4.042  17.564  0.00  0.00    +0.000 A 
ATOM      5  C   UNL     1      48.949   3.579  18.207  0.00  0.00    +0.000 A 
ATOM      6  C   UNL     1      49.345   4.118  19.430  0.00  0.00    +0.000 A 
ENDROOT
BRANCH   1   8
ATOM      7  C   UNL     1      47.837   5.968  22.285  0.00  0.00    +0.000 C 
ATOM      8  C   UNL     1      49.052   5.762  21.368  0.00  0.00    +0.000 C 
BRANCH   8   9
ATOM      9  N   UNL     1      49.817   6.991  21.126  0.00  0.00    +0.000 NA
ATOM     10  H   UNL     1      50.767   6.842  21.473  0.00  0.00    +0.000 HD
BRANCH   9  11
ATOM     11  C   UNL     1      49.274   8.178  21.793  0.00  0.00    +0.000 C 
BRANCH  11  12
ATOM     12  C   UNL     1      48.444   9.036  20.861  0.00  0.00    +0.000 A 
ATOM     13  C   UNL     1      47.504   9.934  21.390  0.00  0.00    +0.000 A 
ATOM     14  C   UNL     1      46.779  10.780  20.549  0.00  0.00    +0.000 A 
ATOM     15  C   UNL     1      46.992  10.746  19.171  0.00  0.00    +0.000 A 
ATOM     16  C   UNL     1      47.904   9.839  18.618  0.00  0.00    +0.000 A 
ATOM     17  C   UNL     1      48.586   8.961  19.468  0.00  0.00    +0.000 A 
BRANCH  16  18
ATOM     18  C   UNL     1      48.218   9.845  17.146  0.00  0.00    +0.000 C 
BRANCH  18  19
ATOM     19  O   UNL     1      48.452   8.498  16.743  0.00  0.00    +0.000 OA
BRANCH  19  20
ATOM     20  C   UNL     1      49.276   8.430  15.585  0.00  0.00    +0.000 C 
BRANCH  20  21
ATOM     21  C   UNL     1      50.511   7.644  15.932  0.00  0.00    +0.000 A 
ATOM     22  C   UNL     1      51.704   7.856  15.235  0.00  0.00    +0.000 A 
ATOM     23  C   UNL     1      52.820   7.111  15.582  0.00  0.00    +0.000 A 
ATOM     24  N   UNL     1      52.829   6.185  16.566  0.00  0.00    +0.000 NA
ATOM     25  C   UNL     1      51.663   5.990  17.220  0.00  0.00    +0.000 A 
ATOM     26  C   UNL     1      50.497   6.686  16.947  0.00  0.00    +0.000 A 
ENDBRANCH  20  21
ENDBRANCH  19  20
ENDBRANCH  18  19
ENDBRANCH  16  18
ENDBRANCH  11  12
ENDBRANCH   9  11
ENDBRANCH   8   9
ENDBRANCH   1   8
BRANCH   4  27
ATOM     27  C   UNL     1      47.369   3.405  16.268  0.00  0.00    +0.000 C 
BRANCH  27  28
ATOM     28  N   UNL     1      46.735   4.365  15.406  0.00  0.00    +0.000 N 
ATOM     29  C   UNL     1      46.832   4.291  14.042  0.00  0.00    +0.000 C 
ATOM     30  O   UNL     1      47.421   3.381  13.470  0.00  0.00    +0.000 OA
ATOM     31  H   UNL     1      46.508   5.256  15.831  0.00  0.00    +0.000 HD
BRANCH  29  32
ATOM     32  C   UNL     1      46.115   5.337  13.305  0.00  0.00    +0.000 A 
ATOM     33  C   UNL     1      46.714   6.569  13.080  0.00  0.00    +0.000 A 
ATOM     34  S   UNL     1      45.766   7.620  12.128  0.00  0.00    +0.000 S 
ATOM     35  C   UNL     1      44.495   6.491  12.043  0.00  0.00    +0.000 A 
ATOM     36  N   UNL     1      43.344   6.775  11.378  0.00  0.00    +0.000 NA
ATOM     37  C   UNL     1      42.459   5.836  11.416  0.00  0.00    +0.000 A 
ATOM     38  N   UNL     1      42.618   4.638  12.055  0.00  0.00    +0.000 N 
ATOM     39  C   UNL     1      43.774   4.293  12.717  0.00  0.00    +0.000 A 
ATOM     40  O   UNL     1      43.899   3.195  13.245  0.00  0.00    +0.000 OA
ATOM     41  C   UNL     1      44.798   5.319  12.711  0.00  0.00    +0.000 A 
ATOM     42  H   UNL     1      41.889   3.937  12.043  0.00  0.00    +0.000 HD
ENDBRANCH  29  32
ENDBRANCH  27  28
ENDBRANCH   4  27
TORSDOF 11
ENDMDL
