MODEL 1
REMARK VINA RESULT:    -8.234      0.000      0.000
REMARK INTER + INTRA:          -9.600
REMARK INTER:                  -9.197
REMARK INTRA:                  -0.404
REMARK UNBOUND:                -0.404
REMARK  Name = 
REMARK  3 active torsions:
REMARK  status: ('A' for Active; 'I' for Inactive)
REMARK    1  A    between atoms: C_1  and  C_2
REMARK    2  A    between atoms: N_6  and  C_7
REMARK    3  A    between atoms: C_7  and  C_8
REMARK                            x       y       z     vdW  Elec       q    Type
REMARK                         _______ _______ _______ _____ _____    ______ ____
ROOT
ATOM      1  C   UNL     1      45.039   4.639  11.845  0.00  0.00    +0.000 A 
ATOM      2  C   UNL     1      45.467   3.529  12.570  0.00  0.00    +0.000 A 
ATOM      3  C   UNL     1      46.593   3.661  13.366  0.00  0.00    +0.000 A 
ATOM      4  N   UNL     1      47.298   4.808  13.503  0.00  0.00    +0.000 NA
ATOM      5  C   UNL     1      46.886   5.889  12.810  0.00  0.00    +0.000 A 
ATOM      6  N   UNL     1      47.508   7.108  13.002  0.00  0.00    +0.000 N 
ATOM      7  C   UNL     1      48.279   7.320  14.227  0.00  0.00    +0.000 C 
ATOM      8  C   UNL     1      48.236   8.838  14.546  0.00  0.00    +0.000 C 
ATOM      9  N   UNL     1      48.725   9.699  13.440  0.00  0.00    +0.000 NA
ATOM     10  C   UNL     1      47.992   9.362  12.197  0.00  0.00    +0.000 C 
ATOM     11  C   UNL     1      48.011   7.854  11.848  0.00  0.00    +0.000 C 
ATOM     12  C   UNL     1      45.766   5.826  11.979  0.00  0.00    +0.000 A 
ATOM     13  H   UNL     1      49.709   9.479  13.292  0.00  0.00    +0.000 HD
ENDROOT
BRANCH   1  14
ATOM     14  C   UNL     1      43.814   4.583  10.969  0.00  0.00    +0.000 C 
BRANCH  14  20
ATOM     15  C   UNL     1      47.605   1.589   6.520  0.00  0.00    +0.000 C 
ATOM     16  C   UNL     1      46.722   2.405   7.408  0.00  0.00    +0.000 A 
ATOM     17  C   UNL     1      45.868   1.819   8.334  0.00  0.00    +0.000 A 
ATOM     18  C   UNL     1      45.020   2.624   9.098  0.00  0.00    +0.000 A 
ATOM     19  C   UNL     1      45.043   4.005   8.936  0.00  0.00    +0.000 A 
ATOM     20  N   UNL     1      44.170   4.862   9.591  0.00  0.00    +0.000 N 
ATOM     21  N   UNL     1      45.881   4.590   8.059  0.00  0.00    +0.000 NA
ATOM     22  C   UNL     1      46.689   3.790   7.316  0.00  0.00    +0.000 A 
ATOM     23  H   UNL     1      44.484   5.811   9.403  0.00  0.00    +0.000 HD
ENDBRANCH  14  20
ENDBRANCH   1  14
TORSDOF 2
ENDMDL
MODEL 2
REMARK VINA RESULT:    -7.609      1.667      6.435
REMARK INTER + INTRA:          -8.902
REMARK INTER:                  -8.449
REMARK INTRA:                  -0.453
REMARK UNBOUND:                -0.404
REMARK  Name = 
REMARK  3 active torsions:
REMARK  status: ('A' for Active; 'I' for Inactive)
REMARK    1  A    between atoms: C_1  and  C_2
REMARK    2  A    between atoms: N_6  and  C_7
REMARK    3  A    between atoms: C_7  and  C_8
REMARK                            x       y       z     vdW  Elec       q    Type
REMARK                         _______ _______ _______ _____ _____    ______ ____
ROOT
ATOM      1  C   UNL     1      44.403   4.872  12.196  0.00  0.00    +0.000 A 
ATOM      2  C   UNL     1      43.547   3.941  12.781  0.00  0.00    +0.000 A 
ATOM      3  C   UNL     1      43.267   2.778  12.083  0.00  0.00    +0.000 A 
ATOM      4  N   UNL     1      43.789   2.474  10.872  0.00  0.00    +0.000 NA
ATOM      5  C   UNL     1      44.625   3.366  10.302  0.00  0.00    +0.000 A 
ATOM      6  N   UNL     1      45.266   3.050   9.119  0.00  0.00    +0.000 N 
ATOM      7  C   UNL     1      45.384   1.643   8.736  0.00  0.00    +0.000 C 
ATOM      8  C   UNL     1      46.667   1.502   7.876  0.00  0.00    +0.000 C 
ATOM      9  N   UNL     1      46.697   2.393   6.688  0.00  0.00    +0.000 NA
ATOM     10  C   UNL     1      46.456   3.791   7.120  0.00  0.00    +0.000 C 
ATOM     11  C   UNL     1      45.184   3.970   7.983  0.00  0.00    +0.000 C 
ATOM     12  C   UNL     1      44.942   4.564  10.943  0.00  0.00    +0.000 A 
ATOM     13  H   UNL     1      45.928   2.118   6.078  0.00  0.00    +0.000 HD
ENDROOT
BRANCH   1  14
ATOM     14  C   UNL     1      44.771   6.155  12.897  0.00  0.00    +0.000 C 
BRANCH  14  20
ATOM     15  C   UNL     1      50.546   9.015  11.634  0.00  0.00    +0.000 C 
ATOM     16  C   UNL     1      49.322   8.260  12.044  0.00  0.00    +0.000 A 
ATOM     17  C   UNL     1      48.061   8.842  12.030  0.00  0.00    +0.000 A 
ATOM     18  C   UNL     1      46.959   8.113  12.480  0.00  0.00    +0.000 A 
ATOM     19  C   UNL     1      47.127   6.806  12.926  0.00  0.00    +0.000 A 
ATOM     20  N   UNL     1      46.099   6.050  13.471  0.00  0.00    +0.000 N 
ATOM     21  N   UNL     1      48.340   6.220  12.924  0.00  0.00    +0.000 NA
ATOM     22  C   UNL     1      49.401   6.949  12.496  0.00  0.00    +0.000 A 
ATOM     23  H   UNL     1      46.451   5.104  13.588  0.00  0.00    +0.000 HD
ENDBRANCH  14  20
ENDBRANCH   1  14
TORSDOF 2
ENDMDL
MODEL 3
REMARK VINA RESULT:    -7.420      1.777      2.811
REMARK INTER + INTRA:          -8.691
REMARK INTER:                  -8.282
REMARK INTRA:                  -0.409
REMARK UNBOUND:                -0.404
REMARK  Name = 
REMARK  3 active torsions:
REMARK  status: ('A' for Active; 'I' for Inactive)
REMARK    1  A    between atoms: C_1  and  C_2
REMARK    2  A    between atoms: N_6  and  C_7
REMARK    3  A    between atoms: C_7  and  C_8
REMARK                            x       y       z     vdW  Elec       q    Type
REMARK                         _______ _______ _______ _____ _____    ______ ____
ROOT
ATOM      1  C   UNL     1      44.059   4.257  10.992  0.00  0.00    +0.000 A 
ATOM      2  C   UNL     1      43.279   5.367  10.674  0.00  0.00    +0.000 A 
ATOM      3  C   UNL     1      43.563   6.569  11.302  0.00  0.00    +0.000 A 
ATOM      4  N   UNL     1      44.565   6.743  12.195  0.00  0.00    +0.000 NA
ATOM      5  C   UNL     1      45.329   5.675  12.503  0.00  0.00    +0.000 A 
ATOM      6  N   UNL     1      46.430   5.830  13.323  0.00  0.00    +0.000 N 
ATOM      7  C   UNL     1      47.004   7.166  13.488  0.00  0.00    +0.000 C 
ATOM      8  C   UNL     1      48.515   6.988  13.791  0.00  0.00    +0.000 C 
ATOM      9  N   UNL     1      48.796   6.127  14.968  0.00  0.00    +0.000 NA
ATOM     10  C   UNL     1      48.096   4.831  14.803  0.00  0.00    +0.000 C 
ATOM     11  C   UNL     1      46.585   4.969  14.497  0.00  0.00    +0.000 C 
ATOM     12  C   UNL     1      45.093   4.430  11.917  0.00  0.00    +0.000 A 
ATOM     13  H   UNL     1      48.405   6.590  15.788  0.00  0.00    +0.000 HD
ENDROOT
BRANCH   1  14
ATOM     14  C   UNL     1      43.826   2.918  10.341  0.00  0.00    +0.000 C 
BRANCH  14  20
ATOM     15  C   UNL     1      47.756   2.380   5.107  0.00  0.00    +0.000 C 
ATOM     16  C   UNL     1      46.976   2.385   6.383  0.00  0.00    +0.000 A 
ATOM     17  C   UNL     1      46.268   3.502   6.807  0.00  0.00    +0.000 A 
ATOM     18  C   UNL     1      45.605   3.475   8.035  0.00  0.00    +0.000 A 
ATOM     19  C   UNL     1      45.647   2.328   8.821  0.00  0.00    +0.000 A 
ATOM     20  N   UNL     1      45.091   2.255  10.090  0.00  0.00    +0.000 N 
ATOM     21  N   UNL     1      46.310   1.229   8.413  0.00  0.00    +0.000 NA
ATOM     22  C   UNL     1      46.960   1.279   7.223  0.00  0.00    +0.000 A 
ATOM     23  H   UNL     1      45.142   1.283  10.384  0.00  0.00    +0.000 HD
ENDBRANCH  14  20
ENDBRANCH   1  14
TORSDOF 2
ENDMDL
MODEL 4
REMARK VINA RESULT:    -6.981      1.780      6.819
REMARK INTER + INTRA:          -8.201
REMARK INTER:                  -8.054
REMARK INTRA:                  -0.147
REMARK UNBOUND:                -0.404
REMARK  Name = 
REMARK  3 active torsions:
REMARK  status: ('A' for Active; 'I' for Inactive)
REMARK    1  A    between atoms: C_1  and  C_2
REMARK    2  A    between atoms: N_6  and  C_7
REMARK    3  A    between atoms: C_7  and  C_8
REMARK                            x       y       z     vdW  Elec       q    Type
REMARK                         _______ _______ _______ _____ _____    ______ ____
ROOT
ATOM      1  C   UNL     1      44.656   5.190  11.182  0.00  0.00    +0.000 A 
ATOM      2  C   UNL     1      43.683   4.450  11.851  0.00  0.00    +0.000 A 
ATOM      3  C   UNL     1      43.350   3.202  11.352  0.00  0.00    +0.000 A 
ATOM      4  N   UNL     1      43.924   2.641  10.262  0.00  0.00    +0.000 NA
ATOM      5  C   UNL     1      44.871   3.347   9.613  0.00  0.00    +0.000 A 
ATOM      6  N   UNL     1      45.561   2.771   8.563  0.00  0.00    +0.000 N 
ATOM      7  C   UNL     1      45.580   1.312   8.448  0.00  0.00    +0.000 C 
ATOM      8  C   UNL     1      46.901   0.920   7.736  0.00  0.00    +0.000 C 
ATOM      9  N   UNL     1      47.090   1.571   6.415  0.00  0.00    +0.000 NA
ATOM     10  C   UNL     1      46.944   3.038   6.568  0.00  0.00    +0.000 C 
ATOM     11  C   UNL     1      45.637   3.468   7.278  0.00  0.00    +0.000 C 
ATOM     12  C   UNL     1      45.249   4.616  10.053  0.00  0.00    +0.000 A 
ATOM     13  H   UNL     1      46.342   1.245   5.803  0.00  0.00    +0.000 HD
ENDROOT
BRANCH   1  14
ATOM     14  C   UNL     1      45.087   6.549  11.670  0.00  0.00    +0.000 C 
BRANCH  14  20
ATOM     15  C   UNL     1      48.704   4.840  16.878  0.00  0.00    +0.000 C 
ATOM     16  C   UNL     1      48.038   5.289  15.617  0.00  0.00    +0.000 A 
ATOM     17  C   UNL     1      46.916   4.646  15.110  0.00  0.00    +0.000 A 
ATOM     18  C   UNL     1      46.367   5.068  13.897  0.00  0.00    +0.000 A 
ATOM     19  C   UNL     1      46.939   6.133  13.210  0.00  0.00    +0.000 A 
ATOM     20  N   UNL     1      46.508   6.551  11.959  0.00  0.00    +0.000 N 
ATOM     21  N   UNL     1      48.013   6.781  13.700  0.00  0.00    +0.000 NA
ATOM     22  C   UNL     1      48.541   6.349  14.874  0.00  0.00    +0.000 A 
ATOM     23  H   UNL     1      46.997   7.418  11.747  0.00  0.00    +0.000 HD
ENDBRANCH  14  20
ENDBRANCH   1  14
TORSDOF 2
ENDMDL
MODEL 5
REMARK VINA RESULT:    -6.731      3.251      7.390
REMARK INTER + INTRA:          -7.922
REMARK INTER:                  -7.493
REMARK INTRA:                  -0.428
REMARK UNBOUND:                -0.404
REMARK  Name = 
REMARK  3 active torsions:
REMARK  status: ('A' for Active; 'I' for Inactive)
REMARK    1  A    between atoms: C_1  and  C_2
REMARK    2  A    between atoms: N_6  and  C_7
REMARK    3  A    between atoms: C_7  and  C_8
REMARK                            x       y       z     vdW  Elec       q    Type
REMARK                         _______ _______ _______ _____ _____    ______ ____
ROOT
ATOM      1  C   UNL     1      47.890   6.489  14.220  0.00  0.00    +0.000 A 
ATOM      2  C   UNL     1      48.486   7.341  13.292  0.00  0.00    +0.000 A 
ATOM      3  C   UNL     1      48.024   7.314  11.987  0.00  0.00    +0.000 A 
ATOM      4  N   UNL     1      47.012   6.527  11.554  0.00  0.00    +0.000 NA
ATOM      5  C   UNL     1      46.425   5.705  12.448  0.00  0.00    +0.000 A 
ATOM      6  N   UNL     1      45.318   4.965  12.077  0.00  0.00    +0.000 N 
ATOM      7  C   UNL     1      44.545   5.388  10.909  0.00  0.00    +0.000 C 
ATOM      8  C   UNL     1      43.082   4.922  11.126  0.00  0.00    +0.000 C 
ATOM      9  N   UNL     1      42.944   3.463  11.369  0.00  0.00    +0.000 NA
ATOM     10  C   UNL     1      43.835   3.068  12.486  0.00  0.00    +0.000 C 
ATOM     11  C   UNL     1      45.305   3.519  12.305  0.00  0.00    +0.000 C 
ATOM     12  C   UNL     1      46.847   5.670  13.777  0.00  0.00    +0.000 A 
ATOM     13  H   UNL     1      43.263   2.981  10.530  0.00  0.00    +0.000 HD
ENDROOT
BRANCH   1  14
ATOM     14  C   UNL     1      48.323   6.468  15.664  0.00  0.00    +0.000 C 
BRANCH  14  20
ATOM     15  C   UNL     1      51.614   1.187  17.761  0.00  0.00    +0.000 C 
ATOM     16  C   UNL     1      50.711   2.296  17.325  0.00  0.00    +0.000 A 
ATOM     17  C   UNL     1      51.079   3.630  17.438  0.00  0.00    +0.000 A 
ATOM     18  C   UNL     1      50.176   4.629  17.071  0.00  0.00    +0.000 A 
ATOM     19  C   UNL     1      48.920   4.284  16.585  0.00  0.00    +0.000 A 
ATOM     20  N   UNL     1      47.937   5.216  16.286  0.00  0.00    +0.000 N 
ATOM     21  N   UNL     1      48.556   2.994  16.448  0.00  0.00    +0.000 NA
ATOM     22  C   UNL     1      49.443   2.037  16.822  0.00  0.00    +0.000 A 
ATOM     23  H   UNL     1      47.178   4.717  15.829  0.00  0.00    +0.000 HD
ENDBRANCH  14  20
ENDBRANCH   1  14
TORSDOF 2
ENDMDL
MODEL 6
REMARK VINA RESULT:    -6.354      3.467      8.281
REMARK INTER + INTRA:          -7.501
REMARK INTER:                  -7.201
REMARK INTRA:                  -0.300
REMARK UNBOUND:                -0.404
REMARK  Name = 
REMARK  3 active torsions:
REMARK  status: ('A' for Active; 'I' for Inactive)
REMARK    1  A    between atoms: C_1  and  C_2
REMARK    2  A    between atoms: N_6  and  C_7
REMARK    3  A    between atoms: C_7  and  C_8
REMARK                            x       y       z     vdW  Elec       q    Type
REMARK                         _______ _______ _______ _____ _____    ______ ____
ROOT
ATOM      1  C   UNL     1      48.013   6.576  13.879  0.00  0.00    +0.000 A 
ATOM      2  C   UNL     1      48.451   7.483  12.917  0.00  0.00    +0.000 A 
ATOM      3  C   UNL     1      47.829   7.478  11.679  0.00  0.00    +0.000 A 
ATOM      4  N   UNL     1      46.804   6.660  11.347  0.00  0.00    +0.000 NA
ATOM      5  C   UNL     1      46.368   5.784  12.275  0.00  0.00    +0.000 A 
ATOM      6  N   UNL     1      45.255   5.006  12.019  0.00  0.00    +0.000 N 
ATOM      7  C   UNL     1      44.324   5.431  10.973  0.00  0.00    +0.000 C 
ATOM      8  C   UNL     1      42.920   4.892  11.354  0.00  0.00    +0.000 C 
ATOM      9  N   UNL     1      42.875   3.422  11.557  0.00  0.00    +0.000 NA
ATOM     10  C   UNL     1      43.915   3.031  12.538  0.00  0.00    +0.000 C 
ATOM     11  C   UNL     1      45.331   3.554  12.192  0.00  0.00    +0.000 C 
ATOM     12  C   UNL     1      46.956   5.725  13.539  0.00  0.00    +0.000 A 
ATOM     13  H   UNL     1      43.104   2.981  10.667  0.00  0.00    +0.000 HD
ENDROOT
BRANCH   1  14
ATOM     14  C   UNL     1      48.626   6.528  15.255  0.00  0.00    +0.000 C 
BRANCH  14  20
ATOM     15  C   UNL     1      48.658   4.923  21.623  0.00  0.00    +0.000 C 
ATOM     16  C   UNL     1      48.559   5.130  20.145  0.00  0.00    +0.000 A 
ATOM     17  C   UNL     1      48.470   6.399  19.586  0.00  0.00    +0.000 A 
ATOM     18  C   UNL     1      48.320   6.535  18.205  0.00  0.00    +0.000 A 
ATOM     19  C   UNL     1      48.273   5.404  17.397  0.00  0.00    +0.000 A 
ATOM     20  N   UNL     1      48.035   5.455  16.031  0.00  0.00    +0.000 N 
ATOM     21  N   UNL     1      48.381   4.168  17.922  0.00  0.00    +0.000 NA
ATOM     22  C   UNL     1      48.512   4.055  19.268  0.00  0.00    +0.000 A 
ATOM     23  H   UNL     1      48.184   4.518  15.665  0.00  0.00    +0.000 HD
ENDBRANCH  14  20
ENDBRANCH   1  14
TORSDOF 2
ENDMDL
MODEL 7
REMARK VINA RESULT:    -6.287      3.397      6.910
REMARK INTER + INTRA:          -7.426
REMARK INTER:                  -7.044
REMARK INTRA:                  -0.382
REMARK UNBOUND:                -0.404
REMARK  Name = 
REMARK  3 active torsions:
REMARK  status: ('A' for Active; 'I' for Inactive)
REMARK    1  A    between atoms: C_1  and  C_2
REMARK    2  A    between atoms: N_6  and  C_7
REMARK    3  A    between atoms: C_7  and  C_8
REMARK                            x       y       z     vdW  Elec       q    Type
REMARK                         _______ _______ _______ _____ _____    ______ ____
ROOT
ATOM      1  C   UNL     1      47.053   8.106  12.547  0.00  0.00    +0.000 A 
ATOM      2  C   UNL     1      48.097   7.642  13.345  0.00  0.00    +0.000 A 
ATOM      3  C   UNL     1      48.023   6.347  13.831  0.00  0.00    +0.000 A 
ATOM      4  N   UNL     1      47.009   5.491  13.565  0.00  0.00    +0.000 NA
ATOM      5  C   UNL     1      45.999   5.931  12.788  0.00  0.00    +0.000 A 
ATOM      6  N   UNL     1      44.999   5.059  12.401  0.00  0.00    +0.000 N 
ATOM      7  C   UNL     1      45.257   3.620  12.457  0.00  0.00    +0.000 C 
ATOM      8  C   UNL     1      44.380   2.948  11.368  0.00  0.00    +0.000 C 
ATOM      9  N   UNL     1      42.931   3.244  11.495  0.00  0.00    +0.000 NA
ATOM     10  C   UNL     1      42.736   4.712  11.551  0.00  0.00    +0.000 C 
ATOM     11  C   UNL     1      43.598   5.419  12.626  0.00  0.00    +0.000 C 
ATOM     12  C   UNL     1      46.001   7.228  12.273  0.00  0.00    +0.000 A 
ATOM     13  H   UNL     1      42.614   2.853  12.382  0.00  0.00    +0.000 HD
ENDROOT
BRANCH   1  14
ATOM     14  C   UNL     1      47.065   9.497  11.965  0.00  0.00    +0.000 C 
BRANCH  14  20
ATOM     15  C   UNL     1      41.565  12.067   9.460  0.00  0.00    +0.000 C 
ATOM     16  C   UNL     1      42.773  11.569  10.187  0.00  0.00    +0.000 A 
ATOM     17  C   UNL     1      43.343  10.334   9.904  0.00  0.00    +0.000 A 
ATOM     18  C   UNL     1      44.434   9.890  10.653  0.00  0.00    +0.000 A 
ATOM     19  C   UNL     1      44.951  10.688  11.667  0.00  0.00    +0.000 A 
ATOM     20  N   UNL     1      45.973  10.279  12.512  0.00  0.00    +0.000 N 
ATOM     21  N   UNL     1      44.424  11.898  11.939  0.00  0.00    +0.000 NA
ATOM     22  C   UNL     1      43.355  12.307  11.209  0.00  0.00    +0.000 A 
ATOM     23  H   UNL     1      46.248  11.087  13.065  0.00  0.00    +0.000 HD
ENDBRANCH  14  20
ENDBRANCH   1  14
TORSDOF 2
ENDMDL
MODEL 8
REMARK VINA RESULT:    -5.863      4.692      6.118
REMARK INTER + INTRA:          -6.952
REMARK INTER:                  -6.710
REMARK INTRA:                  -0.241
REMARK UNBOUND:                -0.404
REMARK  Name = 
REMARK  3 active torsions:
REMARK  status: ('A' for Active; 'I' for Inactive)
REMARK    1  A    between atoms: C_1  and  C_2
REMARK    2  A    between atoms: N_6  and  C_7
REMARK    3  A    between atoms: C_7  and  C_8
REMARK                            x       y       z     vdW  Elec       q    Type
REMARK                         _______ _______ _______ _____ _____    ______ ____
ROOT
ATOM      1  C   UNL     1      47.691   4.392  16.376  0.00  0.00    +0.000 A 
ATOM      2  C   UNL     1      48.296   3.137  16.406  0.00  0.00    +0.000 A 
ATOM      3  C   UNL     1      48.916   2.737  17.579  0.00  0.00    +0.000 A 
ATOM      4  N   UNL     1      48.957   3.480  18.709  0.00  0.00    +0.000 NA
ATOM      5  C   UNL     1      48.368   4.693  18.690  0.00  0.00    +0.000 A 
ATOM      6  N   UNL     1      48.290   5.439  19.850  0.00  0.00    +0.000 N 
ATOM      7  C   UNL     1      48.436   4.758  21.137  0.00  0.00    +0.000 C 
ATOM      8  C   UNL     1      47.630   5.568  22.186  0.00  0.00    +0.000 C 
ATOM      9  N   UNL     1      48.026   6.995  22.279  0.00  0.00    +0.000 NA
ATOM     10  C   UNL     1      47.972   7.606  20.930  0.00  0.00    +0.000 C 
ATOM     11  C   UNL     1      48.765   6.824  19.855  0.00  0.00    +0.000 C 
ATOM     12  C   UNL     1      47.734   5.165  17.539  0.00  0.00    +0.000 A 
ATOM     13  H   UNL     1      48.994   7.025  22.596  0.00  0.00    +0.000 HD
ENDROOT
BRANCH   1  14
ATOM     14  C   UNL     1      46.981   4.895  15.144  0.00  0.00    +0.000 C 
BRANCH  14  20
ATOM     15  C   UNL     1      44.171   4.426   9.227  0.00  0.00    +0.000 C 
ATOM     16  C   UNL     1      44.832   4.349  10.567  0.00  0.00    +0.000 A 
ATOM     17  C   UNL     1      45.619   5.384  11.057  0.00  0.00    +0.000 A 
ATOM     18  C   UNL     1      46.262   5.238  12.288  0.00  0.00    +0.000 A 
ATOM     19  C   UNL     1      46.102   4.066  13.019  0.00  0.00    +0.000 A 
ATOM     20  N   UNL     1      46.779   3.810  14.203  0.00  0.00    +0.000 N 
ATOM     21  N   UNL     1      45.325   3.063  12.567  0.00  0.00    +0.000 NA
ATOM     22  C   UNL     1      44.718   3.218  11.363  0.00  0.00    +0.000 A 
ATOM     23  H   UNL     1      46.386   2.958  14.596  0.00  0.00    +0.000 HD
ENDBRANCH  14  20
ENDBRANCH   1  14
TORSDOF 2
ENDMDL
MODEL 9
REMARK VINA RESULT:    -5.759      3.208      5.669
REMARK INTER + INTRA:          -6.836
REMARK INTER:                  -6.392
REMARK INTRA:                  -0.444
REMARK UNBOUND:                -0.404
REMARK  Name = 
REMARK  3 active torsions:
REMARK  status: ('A' for Active; 'I' for Inactive)
REMARK    1  A    between atoms: C_1  and  C_2
REMARK    2  A    between atoms: N_6  and  C_7
REMARK    3  A    between atoms: C_7  and  C_8
REMARK                            x       y       z     vdW  Elec       q    Type
REMARK                         _______ _______ _______ _____ _____    ______ ____
ROOT
ATOM      1  C   UNL     1      48.348   7.572  13.984  0.00  0.00    +0.000 A 
ATOM      2  C   UNL     1      49.256   8.623  14.089  0.00  0.00    +0.000 A 
ATOM      3  C   UNL     1      50.158   8.607  15.140  0.00  0.00    +0.000 A 
ATOM      4  N   UNL     1      50.230   7.623  16.066  0.00  0.00    +0.000 NA
ATOM      5  C   UNL     1      49.359   6.598  15.968  0.00  0.00    +0.000 A 
ATOM      6  N   UNL     1      49.466   5.519  16.824  0.00  0.00    +0.000 N 
ATOM      7  C   UNL     1      50.738   5.287  17.510  0.00  0.00    +0.000 C 
ATOM      8  C   UNL     1      50.850   3.763  17.776  0.00  0.00    +0.000 C 
ATOM      9  N   UNL     1      49.710   3.199  18.541  0.00  0.00    +0.000 NA
ATOM     10  C   UNL     1      48.441   3.563  17.866  0.00  0.00    +0.000 C 
ATOM     11  C   UNL     1      48.294   5.077  17.582  0.00  0.00    +0.000 C 
ATOM     12  C   UNL     1      48.414   6.555  14.941  0.00  0.00    +0.000 A 
ATOM     13  H   UNL     1      49.711   3.637  19.461  0.00  0.00    +0.000 HD
ENDROOT
BRANCH   1  14
ATOM     14  C   UNL     1      47.344   7.506  12.861  0.00  0.00    +0.000 C 
BRANCH  14  20
ATOM     15  C   UNL     1      43.301   2.423  11.888  0.00  0.00    +0.000 C 
ATOM     16  C   UNL     1      44.087   3.654  12.213  0.00  0.00    +0.000 A 
ATOM     17  C   UNL     1      45.471   3.633  12.323  0.00  0.00    +0.000 A 
ATOM     18  C   UNL     1      46.153   4.796  12.687  0.00  0.00    +0.000 A 
ATOM     19  C   UNL     1      45.444   5.969  12.924  0.00  0.00    +0.000 A 
ATOM     20  N   UNL     1      46.039   7.139  13.375  0.00  0.00    +0.000 N 
ATOM     21  N   UNL     1      44.104   6.011  12.798  0.00  0.00    +0.000 NA
ATOM     22  C   UNL     1      43.458   4.867  12.458  0.00  0.00    +0.000 A 
ATOM     23  H   UNL     1      45.332   7.869  13.337  0.00  0.00    +0.000 HD
ENDBRANCH  14  20
ENDBRANCH   1  14
TORSDOF 2
ENDMDL
