MODEL 1
REMARK VINA RESULT:    -8.785      0.000      0.000
REMARK INTER + INTRA:         -12.397
REMARK INTER:                 -11.866
REMARK INTRA:                  -0.532
REMARK UNBOUND:                -0.532
REMARK  Name = 
REMARK  7 active torsions:
REMARK  status: ('A' for Active; 'I' for Inactive)
REMARK    1  A    between atoms: C_1  and  C_2
REMARK    2  A    between atoms: C_6  and  C_7
REMARK    3  A    between atoms: N_9  and  C_10
REMARK    4  A    between atoms: C_10  and  C_11
REMARK    5  A    between atoms: C_14  and  C_15
REMARK    6  A    between atoms: C_15  and  N_16
REMARK    7  A    between atoms: C_17  and  C_19
REMARK                            x       y       z     vdW  Elec       q    Type
REMARK                         _______ _______ _______ _____ _____    ______ ____
ROOT
ATOM      1  C   UNL     1      44.542   5.827  11.459  0.00  0.00    +0.000 A 
ATOM      2  C   UNL     1      44.494   7.225  11.371  0.00  0.00    +0.000 A 
ATOM      3  C   UNL     1      45.418   8.018  12.062  0.00  0.00    +0.000 A 
ATOM      4  C   UNL     1      46.421   7.428  12.842  0.00  0.00    +0.000 A 
ATOM      5  C   UNL     1      46.459   6.031  12.943  0.00  0.00    +0.000 A 
ATOM      6  C   UNL     1      45.537   5.238  12.250  0.00  0.00    +0.000 A 
ENDROOT
BRANCH   1   7
ATOM      7  C   UNL     1      43.546   4.979  10.712  0.00  0.00    +0.000 C 
BRANCH   7  10
ATOM      8  C   UNL     1      45.105   4.269   8.959  0.00  0.00    +0.000 C 
ATOM      9  O   UNL     1      45.402   5.427   8.682  0.00  0.00    +0.000 OA
ATOM     10  N   UNL     1      44.193   3.938   9.941  0.00  0.00    +0.000 N 
ATOM     11  H   UNL     1      44.118   2.985  10.271  0.00  0.00    +0.000 HD
BRANCH   8  17
ATOM     12  C   UNL     1      47.903   2.360   5.209  0.00  0.00    +0.000 C 
ATOM     13  C   UNL     1      47.099   2.207   6.462  0.00  0.00    +0.000 A 
ATOM     14  C   UNL     1      46.945   0.968   7.077  0.00  0.00    +0.000 A 
ATOM     15  N   UNL     1      46.252   0.776   8.222  0.00  0.00    +0.000 NA
ATOM     16  C   UNL     1      45.685   1.872   8.784  0.00  0.00    +0.000 A 
ATOM     17  C   UNL     1      45.758   3.150   8.242  0.00  0.00    +0.000 A 
ATOM     18  C   UNL     1      46.489   3.316   7.064  0.00  0.00    +0.000 A 
ENDBRANCH   8  17
ENDBRANCH   7  10
ENDBRANCH   1   7
BRANCH   4  19
ATOM     19  C   UNL     1      47.428   8.274  13.581  0.00  0.00    +0.000 C 
BRANCH  19  20
ATOM     20  N   UNL     1      47.708   7.744  14.892  0.00  0.00    +0.000 N 
ATOM     21  C   UNL     1      48.869   7.058  15.145  0.00  0.00    +0.000 C 
ATOM     22  O   UNL     1      49.732   6.902  14.283  0.00  0.00    +0.000 OA
ATOM     23  H   UNL     1      46.928   7.663  15.536  0.00  0.00    +0.000 HD
BRANCH  21  24
ATOM     24  C   UNL     1      49.059   6.563  16.515  0.00  0.00    +0.000 A 
ATOM     25  C   UNL     1      49.661   7.380  17.464  0.00  0.00    +0.000 A 
ATOM     26  S   UNL     1      49.756   6.676  19.014  0.00  0.00    +0.000 S 
ATOM     27  C   UNL     1      49.047   5.233  18.460  0.00  0.00    +0.000 A 
ATOM     28  N   UNL     1      48.857   4.180  19.302  0.00  0.00    +0.000 NA
ATOM     29  C   UNL     1      48.340   3.137  18.742  0.00  0.00    +0.000 A 
ATOM     30  N   UNL     1      47.989   3.053  17.420  0.00  0.00    +0.000 N 
ATOM     31  C   UNL     1      48.133   4.101  16.541  0.00  0.00    +0.000 A 
ATOM     32  O   UNL     1      47.771   4.008  15.373  0.00  0.00    +0.000 OA
ATOM     33  C   UNL     1      48.724   5.294  17.116  0.00  0.00    +0.000 A 
ATOM     34  H   UNL     1      47.581   2.210  17.045  0.00  0.00    +0.000 HD
ENDBRANCH  21  24
ENDBRANCH  19  20
ENDBRANCH   4  19
TORSDOF 6
ENDMDL
MODEL 2
REMARK VINA RESULT:    -8.243      1.735      2.426
REMARK INTER + INTRA:         -11.665
REMARK INTER:                 -10.871
REMARK INTRA:                  -0.794
REMARK UNBOUND:                -0.532
REMARK  Name = 
REMARK  7 active torsions:
REMARK  status: ('A' for Active; 'I' for Inactive)
REMARK    1  A    between atoms: C_1  and  C_2
REMARK    2  A    between atoms: C_6  and  C_7
REMARK    3  A    between atoms: N_9  and  C_10
REMARK    4  A    between atoms: C_10  and  C_11
REMARK    5  A    between atoms: C_14  and  C_15
REMARK    6  A    between atoms: C_15  and  N_16
REMARK    7  A    between atoms: C_17  and  C_19
REMARK                            x       y       z     vdW  Elec       q    Type
REMARK                         _______ _______ _______ _____ _____    ______ ____
ROOT
ATOM      1  C   UNL     1      44.976   5.599  11.804  0.00  0.00    +0.000 A 
ATOM      2  C   UNL     1      45.818   4.940  12.709  0.00  0.00    +0.000 A 
ATOM      3  C   UNL     1      46.793   5.645  13.425  0.00  0.00    +0.000 A 
ATOM      4  C   UNL     1      46.934   7.029  13.263  0.00  0.00    +0.000 A 
ATOM      5  C   UNL     1      46.103   7.686  12.346  0.00  0.00    +0.000 A 
ATOM      6  C   UNL     1      45.127   6.982  11.632  0.00  0.00    +0.000 A 
ENDROOT
BRANCH   1   7
ATOM      7  C   UNL     1      43.927   4.836  11.038  0.00  0.00    +0.000 C 
BRANCH   7  10
ATOM      8  C   UNL     1      45.214   4.165   9.064  0.00  0.00    +0.000 C 
ATOM      9  O   UNL     1      45.373   5.329   8.708  0.00  0.00    +0.000 OA
ATOM     10  N   UNL     1      44.510   3.812  10.196  0.00  0.00    +0.000 N 
ATOM     11  H   UNL     1      44.562   2.870  10.560  0.00  0.00    +0.000 HD
BRANCH   8  17
ATOM     12  C   UNL     1      47.869   2.371   5.156  0.00  0.00    +0.000 C 
ATOM     13  C   UNL     1      47.090   2.177   6.419  0.00  0.00    +0.000 A 
ATOM     14  C   UNL     1      46.912   0.913   6.974  0.00  0.00    +0.000 A 
ATOM     15  N   UNL     1      46.239   0.683   8.124  0.00  0.00    +0.000 NA
ATOM     16  C   UNL     1      45.718   1.765   8.754  0.00  0.00    +0.000 A 
ATOM     17  C   UNL     1      45.818   3.066   8.276  0.00  0.00    +0.000 A 
ATOM     18  C   UNL     1      46.527   3.272   7.090  0.00  0.00    +0.000 A 
ENDBRANCH   8  17
ENDBRANCH   7  10
ENDBRANCH   1   7
BRANCH   4  19
ATOM     19  C   UNL     1      47.974   7.799  14.038  0.00  0.00    +0.000 C 
BRANCH  19  20
ATOM     20  N   UNL     1      48.001   7.409  15.426  0.00  0.00    +0.000 N 
ATOM     21  C   UNL     1      49.092   6.772  15.961  0.00  0.00    +0.000 C 
ATOM     22  O   UNL     1      50.102   6.546  15.297  0.00  0.00    +0.000 OA
ATOM     23  H   UNL     1      47.113   7.380  15.917  0.00  0.00    +0.000 HD
BRANCH  21  24
ATOM     24  C   UNL     1      49.020   6.422  17.385  0.00  0.00    +0.000 A 
ATOM     25  C   UNL     1      49.495   5.189  17.816  0.00  0.00    +0.000 A 
ATOM     26  S   UNL     1      49.387   4.963  19.503  0.00  0.00    +0.000 S 
ATOM     27  C   UNL     1      48.652   6.482  19.713  0.00  0.00    +0.000 A 
ATOM     28  N   UNL     1      48.270   6.909  20.948  0.00  0.00    +0.000 NA
ATOM     29  C   UNL     1      47.695   8.066  20.958  0.00  0.00    +0.000 A 
ATOM     30  N   UNL     1      47.472   8.837  19.846  0.00  0.00    +0.000 N 
ATOM     31  C   UNL     1      47.868   8.460  18.584  0.00  0.00    +0.000 A 
ATOM     32  O   UNL     1      47.691   9.192  17.616  0.00  0.00    +0.000 OA
ATOM     33  C   UNL     1      48.508   7.161  18.515  0.00  0.00    +0.000 A 
ATOM     34  H   UNL     1      47.024   9.737  19.923  0.00  0.00    +0.000 HD
ENDBRANCH  21  24
ENDBRANCH  19  20
ENDBRANCH   4  19
TORSDOF 6
ENDMDL
MODEL 3
REMARK VINA RESULT:    -8.126      2.270      2.752
REMARK INTER + INTRA:         -11.507
REMARK INTER:                 -10.559
REMARK INTRA:                  -0.948
REMARK UNBOUND:                -0.532
REMARK  Name = 
REMARK  7 active torsions:
REMARK  status: ('A' for Active; 'I' for Inactive)
REMARK    1  A    between atoms: C_1  and  C_2
REMARK    2  A    between atoms: C_6  and  C_7
REMARK    3  A    between atoms: N_9  and  C_10
REMARK    4  A    between atoms: C_10  and  C_11
REMARK    5  A    between atoms: C_14  and  C_15
REMARK    6  A    between atoms: C_15  and  N_16
REMARK    7  A    between atoms: C_17  and  C_19
REMARK                            x       y       z     vdW  Elec       q    Type
REMARK                         _______ _______ _______ _____ _____    ______ ____
ROOT
ATOM      1  C   UNL     1      45.247   5.831  12.047  0.00  0.00    +0.000 A 
ATOM      2  C   UNL     1      46.434   5.399  12.654  0.00  0.00    +0.000 A 
ATOM      3  C   UNL     1      47.305   6.316  13.256  0.00  0.00    +0.000 A 
ATOM      4  C   UNL     1      46.997   7.682  13.280  0.00  0.00    +0.000 A 
ATOM      5  C   UNL     1      45.817   8.115  12.659  0.00  0.00    +0.000 A 
ATOM      6  C   UNL     1      44.946   7.199  12.059  0.00  0.00    +0.000 A 
ENDROOT
BRANCH   1   7
ATOM      7  C   UNL     1      44.313   4.840  11.403  0.00  0.00    +0.000 C 
BRANCH   7  10
ATOM      8  C   UNL     1      44.709   3.871   9.189  0.00  0.00    +0.000 C 
ATOM      9  O   UNL     1      43.845   4.571   8.670  0.00  0.00    +0.000 OA
ATOM     10  N   UNL     1      45.015   3.920  10.533  0.00  0.00    +0.000 N 
ATOM     11  H   UNL     1      45.852   3.477  10.886  0.00  0.00    +0.000 HD
BRANCH   8  17
ATOM     12  C   UNL     1      47.598   2.763   5.193  0.00  0.00    +0.000 C 
ATOM     13  C   UNL     1      46.888   2.377   6.452  0.00  0.00    +0.000 A 
ATOM     14  C   UNL     1      46.960   1.082   6.957  0.00  0.00    +0.000 A 
ATOM     15  N   UNL     1      46.360   0.684   8.102  0.00  0.00    +0.000 NA
ATOM     16  C   UNL     1      45.653   1.623   8.779  0.00  0.00    +0.000 A 
ATOM     17  C   UNL     1      45.498   2.937   8.352  0.00  0.00    +0.000 A 
ATOM     18  C   UNL     1      46.138   3.318   7.171  0.00  0.00    +0.000 A 
ENDBRANCH   8  17
ENDBRANCH   7  10
ENDBRANCH   1   7
BRANCH   4  19
ATOM     19  C   UNL     1      47.923   8.675  13.935  0.00  0.00    +0.000 C 
BRANCH  19  20
ATOM     20  N   UNL     1      47.648   8.811  15.344  0.00  0.00    +0.000 N 
ATOM     21  C   UNL     1      48.365   9.682  16.124  0.00  0.00    +0.000 C 
ATOM     22  O   UNL     1      49.237  10.410  15.652  0.00  0.00    +0.000 OA
ATOM     23  H   UNL     1      47.105   8.074  15.784  0.00  0.00    +0.000 HD
BRANCH  21  24
ATOM     24  C   UNL     1      48.001   9.748  17.546  0.00  0.00    +0.000 A 
ATOM     25  C   UNL     1      47.668  10.971  18.115  0.00  0.00    +0.000 A 
ATOM     26  S   UNL     1      47.221  10.864  19.757  0.00  0.00    +0.000 S 
ATOM     27  C   UNL     1      47.508   9.188  19.782  0.00  0.00    +0.000 A 
ATOM     28  N   UNL     1      47.335   8.466  20.922  0.00  0.00    +0.000 NA
ATOM     29  C   UNL     1      47.620   7.211  20.808  0.00  0.00    +0.000 A 
ATOM     30  N   UNL     1      48.056   6.612  19.654  0.00  0.00    +0.000 N 
ATOM     31  C   UNL     1      48.216   7.295  18.472  0.00  0.00    +0.000 A 
ATOM     32  O   UNL     1      48.568   6.721  17.447  0.00  0.00    +0.000 OA
ATOM     33  C   UNL     1      47.921   8.713  18.549  0.00  0.00    +0.000 A 
ATOM     34  H   UNL     1      48.255   5.624  19.629  0.00  0.00    +0.000 HD
ENDBRANCH  21  24
ENDBRANCH  19  20
ENDBRANCH   4  19
TORSDOF 6
ENDMDL
MODEL 4
REMARK VINA RESULT:    -7.820      1.700      2.314
REMARK INTER + INTRA:         -11.094
REMARK INTER:                 -10.253
REMARK INTRA:                  -0.842
REMARK UNBOUND:                -0.532
REMARK  Name = 
REMARK  7 active torsions:
REMARK  status: ('A' for Active; 'I' for Inactive)
REMARK    1  A    between atoms: C_1  and  C_2
REMARK    2  A    between atoms: C_6  and  C_7
REMARK    3  A    between atoms: N_9  and  C_10
REMARK    4  A    between atoms: C_10  and  C_11
REMARK    5  A    between atoms: C_14  and  C_15
REMARK    6  A    between atoms: C_15  and  N_16
REMARK    7  A    between atoms: C_17  and  C_19
REMARK                            x       y       z     vdW  Elec       q    Type
REMARK                         _______ _______ _______ _____ _____    ______ ____
ROOT
ATOM      1  C   UNL     1      45.360   6.698  11.646  0.00  0.00    +0.000 A 
ATOM      2  C   UNL     1      46.539   6.135  12.153  0.00  0.00    +0.000 A 
ATOM      3  C   UNL     1      47.364   6.860  13.020  0.00  0.00    +0.000 A 
ATOM      4  C   UNL     1      47.018   8.159  13.415  0.00  0.00    +0.000 A 
ATOM      5  C   UNL     1      45.847   8.728  12.896  0.00  0.00    +0.000 A 
ATOM      6  C   UNL     1      45.020   8.003  12.030  0.00  0.00    +0.000 A 
ENDROOT
BRANCH   1   7
ATOM      7  C   UNL     1      44.475   5.913  10.715  0.00  0.00    +0.000 C 
BRANCH   7  10
ATOM      8  C   UNL     1      44.801   3.825   9.474  0.00  0.00    +0.000 C 
ATOM      9  O   UNL     1      43.773   3.334   9.928  0.00  0.00    +0.000 OA
ATOM     10  N   UNL     1      45.242   5.091   9.803  0.00  0.00    +0.000 N 
ATOM     11  H   UNL     1      45.979   5.532   9.269  0.00  0.00    +0.000 HD
BRANCH   8  17
ATOM     12  C   UNL     1      46.800  -0.451   7.670  0.00  0.00    +0.000 C 
ATOM     13  C   UNL     1      46.582   1.028   7.611  0.00  0.00    +0.000 A 
ATOM     14  C   UNL     1      47.114   1.799   6.581  0.00  0.00    +0.000 A 
ATOM     15  N   UNL     1      46.928   3.133   6.464  0.00  0.00    +0.000 NA
ATOM     16  C   UNL     1      46.174   3.731   7.420  0.00  0.00    +0.000 A 
ATOM     17  C   UNL     1      45.615   3.060   8.502  0.00  0.00    +0.000 A 
ATOM     18  C   UNL     1      45.818   1.681   8.589  0.00  0.00    +0.000 A 
ENDBRANCH   8  17
ENDBRANCH   7  10
ENDBRANCH   1   7
BRANCH   4  19
ATOM     19  C   UNL     1      47.895   8.943  14.358  0.00  0.00    +0.000 C 
BRANCH  19  20
ATOM     20  N   UNL     1      48.167   8.208  15.568  0.00  0.00    +0.000 N 
ATOM     21  C   UNL     1      48.475   8.858  16.736  0.00  0.00    +0.000 C 
ATOM     22  O   UNL     1      48.490  10.085  16.813  0.00  0.00    +0.000 OA
ATOM     23  H   UNL     1      48.381   7.220  15.472  0.00  0.00    +0.000 HD
BRANCH  21  24
ATOM     24  C   UNL     1      48.732   8.016  17.912  0.00  0.00    +0.000 A 
ATOM     25  C   UNL     1      48.282   8.424  19.162  0.00  0.00    +0.000 A 
ATOM     26  S   UNL     1      48.615   7.308  20.409  0.00  0.00    +0.000 S 
ATOM     27  C   UNL     1      49.419   6.265  19.333  0.00  0.00    +0.000 A 
ATOM     28  N   UNL     1      49.981   5.106  19.773  0.00  0.00    +0.000 NA
ATOM     29  C   UNL     1      50.589   4.427  18.857  0.00  0.00    +0.000 A 
ATOM     30  N   UNL     1      50.680   4.799  17.541  0.00  0.00    +0.000 N 
ATOM     31  C   UNL     1      50.103   5.944  17.046  0.00  0.00    +0.000 A 
ATOM     32  O   UNL     1      50.167   6.228  15.854  0.00  0.00    +0.000 OA
ATOM     33  C   UNL     1      49.418   6.752  18.037  0.00  0.00    +0.000 A 
ATOM     34  H   UNL     1      51.163   4.219  16.872  0.00  0.00    +0.000 HD
ENDBRANCH  21  24
ENDBRANCH  19  20
ENDBRANCH   4  19
TORSDOF 6
ENDMDL
MODEL 5
REMARK VINA RESULT:    -7.734      4.119      7.020
REMARK INTER + INTRA:         -10.978
REMARK INTER:                  -9.970
REMARK INTRA:                  -1.008
REMARK UNBOUND:                -0.532
REMARK  Name = 
REMARK  7 active torsions:
REMARK  status: ('A' for Active; 'I' for Inactive)
REMARK    1  A    between atoms: C_1  and  C_2
REMARK    2  A    between atoms: C_6  and  C_7
REMARK    3  A    between atoms: N_9  and  C_10
REMARK    4  A    between atoms: C_10  and  C_11
REMARK    5  A    between atoms: C_14  and  C_15
REMARK    6  A    between atoms: C_15  and  N_16
REMARK    7  A    between atoms: C_17  and  C_19
REMARK                            x       y       z     vdW  Elec       q    Type
REMARK                         _______ _______ _______ _____ _____    ______ ____
ROOT
ATOM      1  C   UNL     1      44.872   9.193  11.887  0.00  0.00    +0.000 A 
ATOM      2  C   UNL     1      44.330   8.042  11.298  0.00  0.00    +0.000 A 
ATOM      3  C   UNL     1      44.790   6.770  11.657  0.00  0.00    +0.000 A 
ATOM      4  C   UNL     1      45.790   6.620  12.626  0.00  0.00    +0.000 A 
ATOM      5  C   UNL     1      46.343   7.771  13.203  0.00  0.00    +0.000 A 
ATOM      6  C   UNL     1      45.882   9.044  12.847  0.00  0.00    +0.000 A 
ENDROOT
BRANCH   1   7
ATOM      7  C   UNL     1      44.371  10.560  11.500  0.00  0.00    +0.000 C 
BRANCH   7  10
ATOM      8  C   UNL     1      41.966  10.761  11.078  0.00  0.00    +0.000 C 
ATOM      9  O   UNL     1      42.106  10.550   9.877  0.00  0.00    +0.000 OA
ATOM     10  N   UNL     1      43.021  10.794  11.967  0.00  0.00    +0.000 N 
ATOM     11  H   UNL     1      42.852  10.777  12.964  0.00  0.00    +0.000 HD
BRANCH   8  17
ATOM     12  C   UNL     1      37.114   9.482  11.677  0.00  0.00    +0.000 C 
ATOM     13  C   UNL     1      38.283  10.377  11.945  0.00  0.00    +0.000 A 
ATOM     14  C   UNL     1      38.176  11.473  12.797  0.00  0.00    +0.000 A 
ATOM     15  N   UNL     1      39.204  12.299  13.095  0.00  0.00    +0.000 NA
ATOM     16  C   UNL     1      40.399  12.021  12.516  0.00  0.00    +0.000 A 
ATOM     17  C   UNL     1      40.609  10.967  11.635  0.00  0.00    +0.000 A 
ATOM     18  C   UNL     1      39.529  10.126  11.355  0.00  0.00    +0.000 A 
ENDBRANCH   8  17
ENDBRANCH   7  10
ENDBRANCH   1   7
BRANCH   4  19
ATOM     19  C   UNL     1      46.284   5.253  13.027  0.00  0.00    +0.000 C 
BRANCH  19  20
ATOM     20  N   UNL     1      46.829   5.254  14.361  0.00  0.00    +0.000 N 
ATOM     21  C   UNL     1      47.308   4.101  14.930  0.00  0.00    +0.000 C 
ATOM     22  O   UNL     1      47.333   3.035  14.317  0.00  0.00    +0.000 OA
ATOM     23  H   UNL     1      46.611   6.050  14.951  0.00  0.00    +0.000 HD
BRANCH  21  24
ATOM     24  C   UNL     1      47.845   4.210  16.293  0.00  0.00    +0.000 A 
ATOM     25  C   UNL     1      47.427   3.317  17.272  0.00  0.00    +0.000 A 
ATOM     26  S   UNL     1      48.186   3.549  18.782  0.00  0.00    +0.000 S 
ATOM     27  C   UNL     1      49.061   4.885  18.197  0.00  0.00    +0.000 A 
ATOM     28  N   UNL     1      49.904   5.578  19.010  0.00  0.00    +0.000 NA
ATOM     29  C   UNL     1      50.478   6.589  18.446  0.00  0.00    +0.000 A 
ATOM     30  N   UNL     1      50.290   6.965  17.141  0.00  0.00    +0.000 N 
ATOM     31  C   UNL     1      49.473   6.278  16.275  0.00  0.00    +0.000 A 
ATOM     32  O   UNL     1      49.358   6.616  15.102  0.00  0.00    +0.000 OA
ATOM     33  C   UNL     1      48.792   5.139  16.863  0.00  0.00    +0.000 A 
ATOM     34  H   UNL     1      50.775   7.762  16.758  0.00  0.00    +0.000 HD
ENDBRANCH  21  24
ENDBRANCH  19  20
ENDBRANCH   4  19
TORSDOF 6
ENDMDL
MODEL 6
REMARK VINA RESULT:    -7.551      5.132      9.965
REMARK INTER + INTRA:         -10.731
REMARK INTER:                  -9.873
REMARK INTRA:                  -0.858
REMARK UNBOUND:                -0.532
REMARK  Name = 
REMARK  7 active torsions:
REMARK  status: ('A' for Active; 'I' for Inactive)
REMARK    1  A    between atoms: C_1  and  C_2
REMARK    2  A    between atoms: C_6  and  C_7
REMARK    3  A    between atoms: N_9  and  C_10
REMARK    4  A    between atoms: C_10  and  C_11
REMARK    5  A    between atoms: C_14  and  C_15
REMARK    6  A    between atoms: C_15  and  N_16
REMARK    7  A    between atoms: C_17  and  C_19
REMARK                            x       y       z     vdW  Elec       q    Type
REMARK                         _______ _______ _______ _____ _____    ______ ____
ROOT
ATOM      1  C   UNL     1      51.428   2.794  17.737  0.00  0.00    +0.000 A 
ATOM      2  C   UNL     1      50.671   1.848  17.031  0.00  0.00    +0.000 A 
ATOM      3  C   UNL     1      49.312   2.066  16.776  0.00  0.00    +0.000 A 
ATOM      4  C   UNL     1      48.685   3.243  17.204  0.00  0.00    +0.000 A 
ATOM      5  C   UNL     1      49.438   4.181  17.923  0.00  0.00    +0.000 A 
ATOM      6  C   UNL     1      50.797   3.965  18.177  0.00  0.00    +0.000 A 
ENDROOT
BRANCH   1   7
ATOM      7  C   UNL     1      52.891   2.556  18.007  0.00  0.00    +0.000 C 
BRANCH   7  10
ATOM      8  C   UNL     1      54.186   0.540  17.494  0.00  0.00    +0.000 C 
ATOM      9  O   UNL     1      54.861   1.125  16.654  0.00  0.00    +0.000 OA
ATOM     10  N   UNL     1      53.181   1.153  18.215  0.00  0.00    +0.000 N 
ATOM     11  H   UNL     1      52.781   0.699  19.026  0.00  0.00    +0.000 HD
BRANCH   8  17
ATOM     12  C   UNL     1      54.178  -3.494  20.538  0.00  0.00    +0.000 C 
ATOM     13  C   UNL     1      54.459  -2.836  19.223  0.00  0.00    +0.000 A 
ATOM     14  C   UNL     1      54.971  -3.556  18.147  0.00  0.00    +0.000 A 
ATOM     15  N   UNL     1      55.220  -3.020  16.932  0.00  0.00    +0.000 NA
ATOM     16  C   UNL     1      54.946  -1.700  16.778  0.00  0.00    +0.000 A 
ATOM     17  C   UNL     1      54.455  -0.885  17.792  0.00  0.00    +0.000 A 
ATOM     18  C   UNL     1      54.199  -1.472  19.033  0.00  0.00    +0.000 A 
ENDBRANCH   8  17
ENDBRANCH   7  10
ENDBRANCH   1   7
BRANCH   4  19
ATOM     19  C   UNL     1      47.224   3.490  16.923  0.00  0.00    +0.000 C 
BRANCH  19  20
ATOM     20  N   UNL     1      47.040   4.535  15.947  0.00  0.00    +0.000 N 
ATOM     21  C   UNL     1      47.092   4.264  14.603  0.00  0.00    +0.000 C 
ATOM     22  O   UNL     1      47.256   3.123  14.176  0.00  0.00    +0.000 OA
ATOM     23  H   UNL     1      47.131   5.493  16.269  0.00  0.00    +0.000 HD
BRANCH  21  24
ATOM     24  C   UNL     1      46.887   5.398  13.692  0.00  0.00    +0.000 A 
ATOM     25  C   UNL     1      47.936   6.271  13.432  0.00  0.00    +0.000 A 
ATOM     26  S   UNL     1      47.545   7.499  12.314  0.00  0.00    +0.000 S 
ATOM     27  C   UNL     1      45.945   6.940  12.178  0.00  0.00    +0.000 A 
ATOM     28  N   UNL     1      45.048   7.577  11.377  0.00  0.00    +0.000 NA
ATOM     29  C   UNL     1      43.861   7.067  11.394  0.00  0.00    +0.000 A 
ATOM     30  N   UNL     1      43.492   5.974  12.133  0.00  0.00    +0.000 N 
ATOM     31  C   UNL     1      44.370   5.280  12.932  0.00  0.00    +0.000 A 
ATOM     32  O   UNL     1      44.019   4.281  13.549  0.00  0.00    +0.000 OA
ATOM     33  C   UNL     1      45.716   5.821  12.960  0.00  0.00    +0.000 A 
ATOM     34  H   UNL     1      42.548   5.619  12.096  0.00  0.00    +0.000 HD
ENDBRANCH  21  24
ENDBRANCH  19  20
ENDBRANCH   4  19
TORSDOF 6
ENDMDL
MODEL 7
REMARK VINA RESULT:    -7.299      3.657      4.897
REMARK INTER + INTRA:         -10.391
REMARK INTER:                  -9.286
REMARK INTRA:                  -1.105
REMARK UNBOUND:                -0.532
REMARK  Name = 
REMARK  7 active torsions:
REMARK  status: ('A' for Active; 'I' for Inactive)
REMARK    1  A    between atoms: C_1  and  C_2
REMARK    2  A    between atoms: C_6  and  C_7
REMARK    3  A    between atoms: N_9  and  C_10
REMARK    4  A    between atoms: C_10  and  C_11
REMARK    5  A    between atoms: C_14  and  C_15
REMARK    6  A    between atoms: C_15  and  N_16
REMARK    7  A    between atoms: C_17  and  C_19
REMARK                            x       y       z     vdW  Elec       q    Type
REMARK                         _______ _______ _______ _____ _____    ______ ____
ROOT
ATOM      1  C   UNL     1      45.561   6.477  11.989  0.00  0.00    +0.000 A 
ATOM      2  C   UNL     1      46.766   5.949  12.473  0.00  0.00    +0.000 A 
ATOM      3  C   UNL     1      47.660   6.750  13.193  0.00  0.00    +0.000 A 
ATOM      4  C   UNL     1      47.359   8.092  13.461  0.00  0.00    +0.000 A 
ATOM      5  C   UNL     1      46.162   8.624  12.964  0.00  0.00    +0.000 A 
ATOM      6  C   UNL     1      45.267   7.823  12.245  0.00  0.00    +0.000 A 
ENDROOT
BRANCH   1   7
ATOM      7  C   UNL     1      44.602   5.610  11.216  0.00  0.00    +0.000 C 
BRANCH   7  10
ATOM      8  C   UNL     1      44.702   4.154   9.249  0.00  0.00    +0.000 C 
ATOM      9  O   UNL     1      43.591   4.506   8.867  0.00  0.00    +0.000 OA
ATOM     10  N   UNL     1      45.292   4.634  10.400  0.00  0.00    +0.000 N 
ATOM     11  H   UNL     1      46.274   4.472  10.579  0.00  0.00    +0.000 HD
BRANCH   8  17
ATOM     12  C   UNL     1      47.617   2.913   5.311  0.00  0.00    +0.000 C 
ATOM     13  C   UNL     1      46.887   2.566   6.571  0.00  0.00    +0.000 A 
ATOM     14  C   UNL     1      46.933   1.281   7.104  0.00  0.00    +0.000 A 
ATOM     15  N   UNL     1      46.314   0.918   8.250  0.00  0.00    +0.000 NA
ATOM     16  C   UNL     1      45.614   1.883   8.899  0.00  0.00    +0.000 A 
ATOM     17  C   UNL     1      45.486   3.190   8.442  0.00  0.00    +0.000 A 
ATOM     18  C   UNL     1      46.145   3.534   7.260  0.00  0.00    +0.000 A 
ENDBRANCH   8  17
ENDBRANCH   7  10
ENDBRANCH   1   7
BRANCH   4  19
ATOM     19  C   UNL     1      48.311   8.959  14.246  0.00  0.00    +0.000 C 
BRANCH  19  20
ATOM     20  N   UNL     1      49.674   8.783  13.811  0.00  0.00    +0.000 N 
ATOM     21  C   UNL     1      50.401   9.837  13.318  0.00  0.00    +0.000 C 
ATOM     22  O   UNL     1      49.940  10.975  13.266  0.00  0.00    +0.000 OA
ATOM     23  H   UNL     1      49.986   7.833  13.636  0.00  0.00    +0.000 HD
BRANCH  21  24
ATOM     24  C   UNL     1      51.782   9.551  12.906  0.00  0.00    +0.000 A 
ATOM     25  C   UNL     1      52.828  10.289  13.447  0.00  0.00    +0.000 A 
ATOM     26  S   UNL     1      54.368   9.796  12.905  0.00  0.00    +0.000 S 
ATOM     27  C   UNL     1      53.689   8.615  11.886  0.00  0.00    +0.000 A 
ATOM     28  N   UNL     1      54.479   7.832  11.101  0.00  0.00    +0.000 NA
ATOM     29  C   UNL     1      53.832   7.002  10.353  0.00  0.00    +0.000 A 
ATOM     30  N   UNL     1      52.467   6.877  10.324  0.00  0.00    +0.000 N 
ATOM     31  C   UNL     1      51.632   7.624  11.122  0.00  0.00    +0.000 A 
ATOM     32  O   UNL     1      50.417   7.459  11.103  0.00  0.00    +0.000 OA
ATOM     33  C   UNL     1      52.309   8.584  11.973  0.00  0.00    +0.000 A 
ATOM     34  H   UNL     1      52.022   6.202   9.722  0.00  0.00    +0.000 HD
ENDBRANCH  21  24
ENDBRANCH  19  20
ENDBRANCH   4  19
TORSDOF 6
ENDMDL
MODEL 8
REMARK VINA RESULT:    -7.240      4.175      6.824
REMARK INTER + INTRA:         -10.311
REMARK INTER:                  -9.532
REMARK INTRA:                  -0.779
REMARK UNBOUND:                -0.532
REMARK  Name = 
REMARK  7 active torsions:
REMARK  status: ('A' for Active; 'I' for Inactive)
REMARK    1  A    between atoms: C_1  and  C_2
REMARK    2  A    between atoms: C_6  and  C_7
REMARK    3  A    between atoms: N_9  and  C_10
REMARK    4  A    between atoms: C_10  and  C_11
REMARK    5  A    between atoms: C_14  and  C_15
REMARK    6  A    between atoms: C_15  and  N_16
REMARK    7  A    between atoms: C_17  and  C_19
REMARK                            x       y       z     vdW  Elec       q    Type
REMARK                         _______ _______ _______ _____ _____    ______ ____
ROOT
ATOM      1  C   UNL     1      45.156   8.702  12.180  0.00  0.00    +0.000 A 
ATOM      2  C   UNL     1      46.303   8.653  12.984  0.00  0.00    +0.000 A 
ATOM      3  C   UNL     1      46.745   7.442  13.529  0.00  0.00    +0.000 A 
ATOM      4  C   UNL     1      46.059   6.249  13.265  0.00  0.00    +0.000 A 
ATOM      5  C   UNL     1      44.903   6.300  12.475  0.00  0.00    +0.000 A 
ATOM      6  C   UNL     1      44.462   7.510  11.929  0.00  0.00    +0.000 A 
ENDROOT
BRANCH   1   7
ATOM      7  C   UNL     1      44.686  10.007  11.595  0.00  0.00    +0.000 C 
BRANCH   7  10
ATOM      8  C   UNL     1      42.418  10.770  11.066  0.00  0.00    +0.000 C 
ATOM      9  O   UNL     1      42.692  10.926   9.880  0.00  0.00    +0.000 OA
ATOM     10  N   UNL     1      43.332  10.326  11.999  0.00  0.00    +0.000 N 
ATOM     11  H   UNL     1      43.026  10.027  12.915  0.00  0.00    +0.000 HD
BRANCH   8  17
ATOM     12  C   UNL     1      37.539   9.569  11.600  0.00  0.00    +0.000 C 
ATOM     13  C   UNL     1      38.701  10.484  11.821  0.00  0.00    +0.000 A 
ATOM     14  C   UNL     1      38.568  11.662  12.550  0.00  0.00    +0.000 A 
ATOM     15  N   UNL     1      39.588  12.513  12.802  0.00  0.00    +0.000 NA
ATOM     16  C   UNL     1      40.803  12.174  12.303  0.00  0.00    +0.000 A 
ATOM     17  C   UNL     1      41.041  11.034  11.544  0.00  0.00    +0.000 A 
ATOM     18  C   UNL     1      39.969  10.172  11.310  0.00  0.00    +0.000 A 
ENDBRANCH   8  17
ENDBRANCH   7  10
ENDBRANCH   1   7
BRANCH   4  19
ATOM     19  C   UNL     1      46.535   4.938  13.839  0.00  0.00    +0.000 C 
BRANCH  19  20
ATOM     20  N   UNL     1      47.591   5.129  14.801  0.00  0.00    +0.000 N 
ATOM     21  C   UNL     1      47.580   4.470  16.004  0.00  0.00    +0.000 C 
ATOM     22  O   UNL     1      46.699   3.664  16.295  0.00  0.00    +0.000 OA
ATOM     23  H   UNL     1      48.188   5.941  14.679  0.00  0.00    +0.000 HD
BRANCH  21  24
ATOM     24  C   UNL     1      48.706   4.732  16.911  0.00  0.00    +0.000 A 
ATOM     25  C   UNL     1      48.826   5.975  17.519  0.00  0.00    +0.000 A 
ATOM     26  S   UNL     1      50.155   6.095  18.580  0.00  0.00    +0.000 S 
ATOM     27  C   UNL     1      50.650   4.507  18.225  0.00  0.00    +0.000 A 
ATOM     28  N   UNL     1      51.766   3.979  18.797  0.00  0.00    +0.000 NA
ATOM     29  C   UNL     1      52.044   2.777  18.413  0.00  0.00    +0.000 A 
ATOM     30  N   UNL     1      51.303   2.053  17.515  0.00  0.00    +0.000 N 
ATOM     31  C   UNL     1      50.152   2.534  16.937  0.00  0.00    +0.000 A 
ATOM     32  O   UNL     1      49.489   1.846  16.168  0.00  0.00    +0.000 OA
ATOM     33  C   UNL     1      49.802   3.887  17.324  0.00  0.00    +0.000 A 
ATOM     34  H   UNL     1      51.570   1.114  17.263  0.00  0.00    +0.000 HD
ENDBRANCH  21  24
ENDBRANCH  19  20
ENDBRANCH   4  19
TORSDOF 6
ENDMDL
MODEL 9
REMARK VINA RESULT:    -7.043      5.823      8.145
REMARK INTER + INTRA:         -10.045
REMARK INTER:                  -9.084
REMARK INTRA:                  -0.961
REMARK UNBOUND:                -0.532
REMARK  Name = 
REMARK  7 active torsions:
REMARK  status: ('A' for Active; 'I' for Inactive)
REMARK    1  A    between atoms: C_1  and  C_2
REMARK    2  A    between atoms: C_6  and  C_7
REMARK    3  A    between atoms: N_9  and  C_10
REMARK    4  A    between atoms: C_10  and  C_11
REMARK    5  A    between atoms: C_14  and  C_15
REMARK    6  A    between atoms: C_15  and  N_16
REMARK    7  A    between atoms: C_17  and  C_19
REMARK                            x       y       z     vdW  Elec       q    Type
REMARK                         _______ _______ _______ _____ _____    ______ ____
ROOT
ATOM      1  C   UNL     1      47.962   8.678  12.219  0.00  0.00    +0.000 A 
ATOM      2  C   UNL     1      48.776   7.541  12.131  0.00  0.00    +0.000 A 
ATOM      3  C   UNL     1      50.119   7.650  11.751  0.00  0.00    +0.000 A 
ATOM      4  C   UNL     1      50.682   8.901  11.470  0.00  0.00    +0.000 A 
ATOM      5  C   UNL     1      49.864  10.037  11.543  0.00  0.00    +0.000 A 
ATOM      6  C   UNL     1      48.522   9.929  11.925  0.00  0.00    +0.000 A 
ENDROOT
BRANCH   1   7
ATOM      7  C   UNL     1      46.519   8.556  12.631  0.00  0.00    +0.000 C 
BRANCH   7  10
ATOM      8  C   UNL     1      44.909   6.885  11.842  0.00  0.00    +0.000 C 
ATOM      9  O   UNL     1      44.242   7.729  11.254  0.00  0.00    +0.000 OA
ATOM     10  N   UNL     1      46.049   7.188  12.558  0.00  0.00    +0.000 N 
ATOM     11  H   UNL     1      46.674   6.453  12.864  0.00  0.00    +0.000 HD
BRANCH   8  17
ATOM     12  C   UNL     1      44.531   2.431   9.485  0.00  0.00    +0.000 C 
ATOM     13  C   UNL     1      44.324   3.312  10.676  0.00  0.00    +0.000 A 
ATOM     14  C   UNL     1      43.766   2.820  11.853  0.00  0.00    +0.000 A 
ATOM     15  N   UNL     1      43.579   3.564  12.967  0.00  0.00    +0.000 NA
ATOM     16  C   UNL     1      43.968   4.862  12.907  0.00  0.00    +0.000 A 
ATOM     17  C   UNL     1      44.514   5.459  11.777  0.00  0.00    +0.000 A 
ATOM     18  C   UNL     1      44.703   4.661  10.646  0.00  0.00    +0.000 A 
ENDBRANCH   8  17
ENDBRANCH   7  10
ENDBRANCH   1   7
BRANCH   4  19
ATOM     19  C   UNL     1      52.131   9.029  11.071  0.00  0.00    +0.000 C 
BRANCH  19  20
ATOM     20  N   UNL     1      52.386   8.419   9.790  0.00  0.00    +0.000 N 
ATOM     21  C   UNL     1      53.533   8.697   9.090  0.00  0.00    +0.000 C 
ATOM     22  O   UNL     1      54.405   9.438   9.540  0.00  0.00    +0.000 OA
ATOM     23  H   UNL     1      51.597   7.997   9.311  0.00  0.00    +0.000 HD
BRANCH  21  24
ATOM     24  C   UNL     1      53.699   8.019   7.798  0.00  0.00    +0.000 A 
ATOM     25  C   UNL     1      53.788   8.771   6.633  0.00  0.00    +0.000 A 
ATOM     26  S   UNL     1      54.031   7.834   5.228  0.00  0.00    +0.000 S 
ATOM     27  C   UNL     1      53.974   6.386   6.120  0.00  0.00    +0.000 A 
ATOM     28  N   UNL     1      54.095   5.180   5.501  0.00  0.00    +0.000 NA
ATOM     29  C   UNL     1      53.999   4.163   6.293  0.00  0.00    +0.000 A 
ATOM     30  N   UNL     1      53.800   4.244   7.646  0.00  0.00    +0.000 N 
ATOM     31  C   UNL     1      53.702   5.440   8.317  0.00  0.00    +0.000 A 
ATOM     32  O   UNL     1      53.566   5.478   9.536  0.00  0.00    +0.000 OA
ATOM     33  C   UNL     1      53.790   6.615   7.472  0.00  0.00    +0.000 A 
ATOM     34  H   UNL     1      53.742   3.410   8.211  0.00  0.00    +0.000 HD
ENDBRANCH  21  24
ENDBRANCH  19  20
ENDBRANCH   4  19
TORSDOF 6
ENDMDL
