MODEL 1
REMARK VINA RESULT:    -7.968      0.000      0.000
REMARK INTER + INTRA:         -11.779
REMARK INTER:                 -11.229
REMARK INTRA:                  -0.550
REMARK UNBOUND:                -0.550
REMARK  Name = 
REMARK  8 active torsions:
REMARK  status: ('A' for Active; 'I' for Inactive)
REMARK    1  A    between atoms: C_1  and  O_2
REMARK    2  A    between atoms: O_2  and  C_3
REMARK    3  A    between atoms: C_5  and  O_6
REMARK    4  A    between atoms: O_6  and  C_7
REMARK    5  A    between atoms: C_7  and  C_8
REMARK    6  A    between atoms: C_8  and  C_9
REMARK    7  A    between atoms: C_13  and  C_14
REMARK    8  A    between atoms: C_24  and  C_25
REMARK                            x       y       z     vdW  Elec       q    Type
REMARK                         _______ _______ _______ _____ _____    ______ ____
ROOT
ATOM      1  C   UNL     1      46.311   5.860  13.268  0.00  0.00    +0.000 C 
ENDROOT
BRANCH   1   2
ATOM      2  O   UNL     1      46.662   4.501  13.571  0.00  0.00    +0.000 OA
BRANCH   2   5
ATOM      3  C   UNL     1      48.379   5.486  16.638  0.00  0.00    +0.000 A 
ATOM      4  C   UNL     1      47.730   5.570  15.399  0.00  0.00    +0.000 A 
ATOM      5  C   UNL     1      47.273   4.401  14.809  0.00  0.00    +0.000 A 
ATOM      6  N   UNL     1      47.412   3.184  15.367  0.00  0.00    +0.000 NA
ATOM      7  C   UNL     1      48.041   3.122  16.561  0.00  0.00    +0.000 A 
ATOM      8  C   UNL     1      48.549   4.225  17.233  0.00  0.00    +0.000 A 
BRANCH   8   9
ATOM      9  C   UNL     1      49.216   3.942  18.532  0.00  0.00    +0.000 C 
ATOM     10  N   UNL     1      48.494   3.345  19.515  0.00  0.00    +0.000 N 
ATOM     11  O   UNL     1      50.392   4.226  18.724  0.00  0.00    +0.000 OA
ATOM     12  H   UNL     1      47.505   3.147  19.402  0.00  0.00    +0.000 HD
ATOM     13  H   UNL     1      48.941   3.188  20.411  0.00  0.00    +0.000 HD
ENDBRANCH   8   9
BRANCH   3  15
ATOM     14  C   UNL     1      49.213   7.719  16.494  0.00  0.00    +0.000 C 
ATOM     15  O   UNL     1      48.912   6.574  17.286  0.00  0.00    +0.000 OA
ENDBRANCH   3  15
ENDBRANCH   2   5
ENDBRANCH   1   2
BRANCH   1  16
ATOM     16  C   UNL     1      44.886   5.920  12.732  0.00  0.00    +0.000 C 
BRANCH  16  17
ATOM     17  C   UNL     1      44.552   4.728  11.856  0.00  0.00    +0.000 A 
ATOM     18  C   UNL     1      43.589   3.821  12.318  0.00  0.00    +0.000 A 
ATOM     19  C   UNL     1      43.278   2.688  11.579  0.00  0.00    +0.000 A 
ATOM     20  C   UNL     1      43.963   2.420  10.393  0.00  0.00    +0.000 A 
ATOM     21  C   UNL     1      44.934   3.302   9.866  0.00  0.00    +0.000 A 
ATOM     22  C   UNL     1      45.162   4.501  10.596  0.00  0.00    +0.000 A 
ATOM     23 CL   UNL     1      46.125   5.792   9.924  0.00  0.00    +0.000 Cl
BRANCH  21  24
ATOM     24  C   UNL     1      45.671   2.904   8.626  0.00  0.00    +0.000 A 
ATOM     25  C   UNL     1      45.862   3.801   7.555  0.00  0.00    +0.000 A 
ATOM     26  C   UNL     1      46.507   3.412   6.373  0.00  0.00    +0.000 A 
ATOM     27  C   UNL     1      47.010   2.122   6.240  0.00  0.00    +0.000 A 
ATOM     28  C   UNL     1      46.837   1.214   7.276  0.00  0.00    +0.000 A 
ATOM     29  C   UNL     1      46.148   1.593   8.434  0.00  0.00    +0.000 A 
ENDBRANCH  21  24
ENDBRANCH  16  17
ENDBRANCH   1  16
TORSDOF 7
ENDMDL
MODEL 2
REMARK VINA RESULT:    -7.259      1.481      2.178
REMARK INTER + INTRA:         -10.779
REMARK INTER:                  -9.878
REMARK INTRA:                  -0.901
REMARK UNBOUND:                -0.550
REMARK  Name = 
REMARK  8 active torsions:
REMARK  status: ('A' for Active; 'I' for Inactive)
REMARK    1  A    between atoms: C_1  and  O_2
REMARK    2  A    between atoms: O_2  and  C_3
REMARK    3  A    between atoms: C_5  and  O_6
REMARK    4  A    between atoms: O_6  and  C_7
REMARK    5  A    between atoms: C_7  and  C_8
REMARK    6  A    between atoms: C_8  and  C_9
REMARK    7  A    between atoms: C_13  and  C_14
REMARK    8  A    between atoms: C_24  and  C_25
REMARK                            x       y       z     vdW  Elec       q    Type
REMARK                         _______ _______ _______ _____ _____    ______ ____
ROOT
ATOM      1  C   UNL     1      45.971   5.580  13.640  0.00  0.00    +0.000 C 
ENDROOT
BRANCH   1   2
ATOM      2  O   UNL     1      47.248   6.164  13.335  0.00  0.00    +0.000 OA
BRANCH   2   5
ATOM      3  C   UNL     1      48.577   5.271  16.615  0.00  0.00    +0.000 A 
ATOM      4  C   UNL     1      47.750   5.296  15.483  0.00  0.00    +0.000 A 
ATOM      5  C   UNL     1      48.093   6.130  14.430  0.00  0.00    +0.000 A 
ATOM      6  N   UNL     1      49.186   6.916  14.429  0.00  0.00    +0.000 NA
ATOM      7  C   UNL     1      49.971   6.880  15.528  0.00  0.00    +0.000 A 
ATOM      8  C   UNL     1      49.716   6.093  16.644  0.00  0.00    +0.000 A 
BRANCH   8   9
ATOM      9  C   UNL     1      50.698   6.206  17.755  0.00  0.00    +0.000 C 
ATOM     10  N   UNL     1      50.234   6.212  19.031  0.00  0.00    +0.000 N 
ATOM     11  O   UNL     1      51.902   6.282  17.541  0.00  0.00    +0.000 OA
ATOM     12  H   UNL     1      49.240   6.203  19.235  0.00  0.00    +0.000 HD
ATOM     13  H   UNL     1      50.903   6.327  19.784  0.00  0.00    +0.000 HD
ENDBRANCH   8   9
BRANCH   3  15
ATOM     14  C   UNL     1      48.417   3.105  17.608  0.00  0.00    +0.000 C 
ATOM     15  O   UNL     1      48.305   4.520  17.732  0.00  0.00    +0.000 OA
ENDBRANCH   3  15
ENDBRANCH   2   5
ENDBRANCH   1   2
BRANCH   1  16
ATOM     16  C   UNL     1      44.969   5.924  12.544  0.00  0.00    +0.000 C 
BRANCH  16  17
ATOM     17  C   UNL     1      44.608   4.719  11.698  0.00  0.00    +0.000 A 
ATOM     18  C   UNL     1      43.643   3.833  12.194  0.00  0.00    +0.000 A 
ATOM     19  C   UNL     1      43.307   2.688  11.483  0.00  0.00    +0.000 A 
ATOM     20  C   UNL     1      43.970   2.389  10.291  0.00  0.00    +0.000 A 
ATOM     21  C   UNL     1      44.941   3.250   9.731  0.00  0.00    +0.000 A 
ATOM     22  C   UNL     1      45.195   4.460  10.433  0.00  0.00    +0.000 A 
ATOM     23 CL   UNL     1      46.161   5.727   9.720  0.00  0.00    +0.000 Cl
BRANCH  21  24
ATOM     24  C   UNL     1      45.654   2.818   8.488  0.00  0.00    +0.000 A 
ATOM     25  C   UNL     1      46.208   1.528   8.360  0.00  0.00    +0.000 A 
ATOM     26  C   UNL     1      46.921   1.141   7.216  0.00  0.00    +0.000 A 
ATOM     27  C   UNL     1      47.072   2.024   6.153  0.00  0.00    +0.000 A 
ATOM     28  C   UNL     1      46.540   3.302   6.248  0.00  0.00    +0.000 A 
ATOM     29  C   UNL     1      45.872   3.700   7.412  0.00  0.00    +0.000 A 
ENDBRANCH  21  24
ENDBRANCH  16  17
ENDBRANCH   1  16
TORSDOF 7
ENDMDL
MODEL 3
REMARK VINA RESULT:    -7.244      3.623      8.980
REMARK INTER + INTRA:         -10.759
REMARK INTER:                  -9.664
REMARK INTRA:                  -1.094
REMARK UNBOUND:                -0.550
REMARK  Name = 
REMARK  8 active torsions:
REMARK  status: ('A' for Active; 'I' for Inactive)
REMARK    1  A    between atoms: C_1  and  O_2
REMARK    2  A    between atoms: O_2  and  C_3
REMARK    3  A    between atoms: C_5  and  O_6
REMARK    4  A    between atoms: O_6  and  C_7
REMARK    5  A    between atoms: C_7  and  C_8
REMARK    6  A    between atoms: C_8  and  C_9
REMARK    7  A    between atoms: C_13  and  C_14
REMARK    8  A    between atoms: C_24  and  C_25
REMARK                            x       y       z     vdW  Elec       q    Type
REMARK                         _______ _______ _______ _____ _____    ______ ____
ROOT
ATOM      1  C   UNL     1      47.173   4.216  15.964  0.00  0.00    +0.000 C 
ENDROOT
BRANCH   1   2
ATOM      2  O   UNL     1      47.524   3.519  14.758  0.00  0.00    +0.000 OA
BRANCH   2   5
ATOM      3  C   UNL     1      45.904   5.626  12.256  0.00  0.00    +0.000 A 
ATOM      4  C   UNL     1      46.744   5.221  13.303  0.00  0.00    +0.000 A 
ATOM      5  C   UNL     1      46.711   3.893  13.704  0.00  0.00    +0.000 A 
ATOM      6  N   UNL     1      45.918   2.965  13.135  0.00  0.00    +0.000 NA
ATOM      7  C   UNL     1      45.115   3.374  12.129  0.00  0.00    +0.000 A 
ATOM      8  C   UNL     1      45.057   4.678  11.657  0.00  0.00    +0.000 A 
BRANCH   8   9
ATOM      9  C   UNL     1      44.098   4.925  10.548  0.00  0.00    +0.000 C 
ATOM     10  N   UNL     1      43.241   5.973  10.654  0.00  0.00    +0.000 N 
ATOM     11  O   UNL     1      44.075   4.215   9.550  0.00  0.00    +0.000 OA
ATOM     12  H   UNL     1      43.202   6.545  11.491  0.00  0.00    +0.000 HD
ATOM     13  H   UNL     1      42.563   6.116   9.913  0.00  0.00    +0.000 HD
ENDBRANCH   8   9
BRANCH   3  15
ATOM     14  C   UNL     1      45.518   7.923  12.783  0.00  0.00    +0.000 C 
ATOM     15  O   UNL     1      45.822   6.924  11.815  0.00  0.00    +0.000 OA
ENDBRANCH   3  15
ENDBRANCH   2   5
ENDBRANCH   1   2
BRANCH   1  16
ATOM     16  C   UNL     1      47.417   3.319  17.171  0.00  0.00    +0.000 C 
BRANCH  16  17
ATOM     17  C   UNL     1      48.611   3.771  17.990  0.00  0.00    +0.000 A 
ATOM     18  C   UNL     1      48.390   4.692  19.022  0.00  0.00    +0.000 A 
ATOM     19  C   UNL     1      49.453   5.175  19.773  0.00  0.00    +0.000 A 
ATOM     20  C   UNL     1      50.758   4.782  19.468  0.00  0.00    +0.000 A 
ATOM     21  C   UNL     1      51.044   3.844  18.450  0.00  0.00    +0.000 A 
ATOM     22  C   UNL     1      49.927   3.295  17.761  0.00  0.00    +0.000 A 
ATOM     23 CL   UNL     1      50.117   1.940  16.678  0.00  0.00    +0.000 Cl
BRANCH  21  24
ATOM     24  C   UNL     1      52.475   3.532  18.141  0.00  0.00    +0.000 A 
ATOM     25  C   UNL     1      53.353   4.509  17.628  0.00  0.00    +0.000 A 
ATOM     26  C   UNL     1      54.679   4.203  17.289  0.00  0.00    +0.000 A 
ATOM     27  C   UNL     1      55.175   2.919  17.485  0.00  0.00    +0.000 A 
ATOM     28  C   UNL     1      54.334   1.934  17.987  0.00  0.00    +0.000 A 
ATOM     29  C   UNL     1      52.998   2.232  18.277  0.00  0.00    +0.000 A 
ENDBRANCH  21  24
ENDBRANCH  16  17
ENDBRANCH   1  16
TORSDOF 7
ENDMDL
MODEL 4
REMARK VINA RESULT:    -7.208      2.980      3.904
REMARK INTER + INTRA:         -10.708
REMARK INTER:                  -9.781
REMARK INTRA:                  -0.927
REMARK UNBOUND:                -0.550
REMARK  Name = 
REMARK  8 active torsions:
REMARK  status: ('A' for Active; 'I' for Inactive)
REMARK    1  A    between atoms: C_1  and  O_2
REMARK    2  A    between atoms: O_2  and  C_3
REMARK    3  A    between atoms: C_5  and  O_6
REMARK    4  A    between atoms: O_6  and  C_7
REMARK    5  A    between atoms: C_7  and  C_8
REMARK    6  A    between atoms: C_8  and  C_9
REMARK    7  A    between atoms: C_13  and  C_14
REMARK    8  A    between atoms: C_24  and  C_25
REMARK                            x       y       z     vdW  Elec       q    Type
REMARK                         _______ _______ _______ _____ _____    ______ ____
ROOT
ATOM      1  C   UNL     1      45.887   5.927  13.269  0.00  0.00    +0.000 C 
ENDROOT
BRANCH   1   2
ATOM      2  O   UNL     1      47.169   5.832  12.627  0.00  0.00    +0.000 OA
BRANCH   2   5
ATOM      3  C   UNL     1      48.756   9.103  12.957  0.00  0.00    +0.000 A 
ATOM      4  C   UNL     1      47.874   8.095  12.543  0.00  0.00    +0.000 A 
ATOM      5  C   UNL     1      48.029   6.821  13.070  0.00  0.00    +0.000 A 
ATOM      6  N   UNL     1      48.980   6.499  13.967  0.00  0.00    +0.000 NA
ATOM      7  C   UNL     1      49.821   7.483  14.353  0.00  0.00    +0.000 A 
ATOM      8  C   UNL     1      49.765   8.787  13.882  0.00  0.00    +0.000 A 
BRANCH   8   9
ATOM      9  C   UNL     1      50.790   9.718  14.425  0.00  0.00    +0.000 C 
ATOM     10  N   UNL     1      50.373  10.864  15.022  0.00  0.00    +0.000 N 
ATOM     11  O   UNL     1      51.987   9.467  14.352  0.00  0.00    +0.000 OA
ATOM     12  H   UNL     1      49.392  11.122  15.050  0.00  0.00    +0.000 HD
ATOM     13  H   UNL     1      51.075  11.514  15.357  0.00  0.00    +0.000 HD
ENDBRANCH   8   9
BRANCH   3  15
ATOM     14  C   UNL     1      49.120  10.570  11.109  0.00  0.00    +0.000 C 
ATOM     15  O   UNL     1      48.722  10.384  12.463  0.00  0.00    +0.000 OA
ENDBRANCH   3  15
ENDBRANCH   2   5
ENDBRANCH   1   2
BRANCH   1  16
ATOM     16  C   UNL     1      44.795   6.101  12.221  0.00  0.00    +0.000 C 
BRANCH  16  17
ATOM     17  C   UNL     1      44.511   4.815  11.468  0.00  0.00    +0.000 A 
ATOM     18  C   UNL     1      43.599   3.912  12.030  0.00  0.00    +0.000 A 
ATOM     19  C   UNL     1      43.337   2.699  11.408  0.00  0.00    +0.000 A 
ATOM     20  C   UNL     1      44.022   2.350  10.242  0.00  0.00    +0.000 A 
ATOM     21  C   UNL     1      44.942   3.224   9.619  0.00  0.00    +0.000 A 
ATOM     22  C   UNL     1      45.119   4.497  10.227  0.00  0.00    +0.000 A 
ATOM     23 CL   UNL     1      46.011   5.762   9.420  0.00  0.00    +0.000 Cl
BRANCH  21  24
ATOM     24  C   UNL     1      45.686   2.743   8.413  0.00  0.00    +0.000 A 
ATOM     25  C   UNL     1      46.236   1.446   8.348  0.00  0.00    +0.000 A 
ATOM     26  C   UNL     1      46.978   1.014   7.239  0.00  0.00    +0.000 A 
ATOM     27  C   UNL     1      47.163   1.856   6.148  0.00  0.00    +0.000 A 
ATOM     28  C   UNL     1      46.636   3.140   6.182  0.00  0.00    +0.000 A 
ATOM     29  C   UNL     1      45.939   3.583   7.312  0.00  0.00    +0.000 A 
ENDBRANCH  21  24
ENDBRANCH  16  17
ENDBRANCH   1  16
TORSDOF 7
ENDMDL
MODEL 5
REMARK VINA RESULT:    -7.128      2.611      3.570
REMARK INTER + INTRA:         -10.595
REMARK INTER:                  -9.901
REMARK INTRA:                  -0.694
REMARK UNBOUND:                -0.550
REMARK  Name = 
REMARK  8 active torsions:
REMARK  status: ('A' for Active; 'I' for Inactive)
REMARK    1  A    between atoms: C_1  and  O_2
REMARK    2  A    between atoms: O_2  and  C_3
REMARK    3  A    between atoms: C_5  and  O_6
REMARK    4  A    between atoms: O_6  and  C_7
REMARK    5  A    between atoms: C_7  and  C_8
REMARK    6  A    between atoms: C_8  and  C_9
REMARK    7  A    between atoms: C_13  and  C_14
REMARK    8  A    between atoms: C_24  and  C_25
REMARK                            x       y       z     vdW  Elec       q    Type
REMARK                         _______ _______ _______ _____ _____    ______ ____
ROOT
ATOM      1  C   UNL     1      46.090   6.243  12.713  0.00  0.00    +0.000 C 
ENDROOT
BRANCH   1   2
ATOM      2  O   UNL     1      46.632   7.504  12.289  0.00  0.00    +0.000 OA
BRANCH   2   5
ATOM      3  C   UNL     1      49.542   7.141  14.463  0.00  0.00    +0.000 A 
ATOM      4  C   UNL     1      48.284   6.918  13.887  0.00  0.00    +0.000 A 
ATOM      5  C   UNL     1      47.890   7.719  12.825  0.00  0.00    +0.000 A 
ATOM      6  N   UNL     1      48.655   8.699  12.310  0.00  0.00    +0.000 NA
ATOM      7  C   UNL     1      49.864   8.900  12.879  0.00  0.00    +0.000 A 
ATOM      8  C   UNL     1      50.353   8.167  13.952  0.00  0.00    +0.000 A 
BRANCH   8   9
ATOM      9  C   UNL     1      51.705   8.553  14.438  0.00  0.00    +0.000 C 
ATOM     10  N   UNL     1      52.691   7.620  14.417  0.00  0.00    +0.000 N 
ATOM     11  O   UNL     1      51.941   9.685  14.843  0.00  0.00    +0.000 OA
ATOM     12  H   UNL     1      52.510   6.662  14.137  0.00  0.00    +0.000 HD
ATOM     13  H   UNL     1      53.601   7.875  14.785  0.00  0.00    +0.000 HD
ENDBRANCH   8   9
BRANCH   3  15
ATOM     14  C   UNL     1      49.402   6.706  16.807  0.00  0.00    +0.000 C 
ATOM     15  O   UNL     1      50.010   6.439  15.547  0.00  0.00    +0.000 OA
ENDBRANCH   3  15
ENDBRANCH   2   5
ENDBRANCH   1   2
BRANCH   1  16
ATOM     16  C   UNL     1      44.653   6.107  12.226  0.00  0.00    +0.000 C 
BRANCH  16  17
ATOM     17  C   UNL     1      44.419   4.808  11.481  0.00  0.00    +0.000 A 
ATOM     18  C   UNL     1      43.543   3.873  12.047  0.00  0.00    +0.000 A 
ATOM     19  C   UNL     1      43.328   2.647  11.431  0.00  0.00    +0.000 A 
ATOM     20  C   UNL     1      44.026   2.320  10.267  0.00  0.00    +0.000 A 
ATOM     21  C   UNL     1      44.912   3.225   9.639  0.00  0.00    +0.000 A 
ATOM     22  C   UNL     1      45.039   4.507  10.241  0.00  0.00    +0.000 A 
ATOM     23 CL   UNL     1      45.881   5.802   9.427  0.00  0.00    +0.000 Cl
BRANCH  21  24
ATOM     24  C   UNL     1      45.674   2.767   8.435  0.00  0.00    +0.000 A 
ATOM     25  C   UNL     1      46.238   1.477   8.360  0.00  0.00    +0.000 A 
ATOM     26  C   UNL     1      46.996   1.067   7.254  0.00  0.00    +0.000 A 
ATOM     27  C   UNL     1      47.184   1.924   6.176  0.00  0.00    +0.000 A 
ATOM     28  C   UNL     1      46.643   3.202   6.220  0.00  0.00    +0.000 A 
ATOM     29  C   UNL     1      45.929   3.624   7.347  0.00  0.00    +0.000 A 
ENDBRANCH  21  24
ENDBRANCH  16  17
ENDBRANCH   1  16
TORSDOF 7
ENDMDL
MODEL 6
REMARK VINA RESULT:    -7.073      3.826      9.488
REMARK INTER + INTRA:         -10.518
REMARK INTER:                  -9.388
REMARK INTRA:                  -1.130
REMARK UNBOUND:                -0.550
REMARK  Name = 
REMARK  8 active torsions:
REMARK  status: ('A' for Active; 'I' for Inactive)
REMARK    1  A    between atoms: C_1  and  O_2
REMARK    2  A    between atoms: O_2  and  C_3
REMARK    3  A    between atoms: C_5  and  O_6
REMARK    4  A    between atoms: O_6  and  C_7
REMARK    5  A    between atoms: C_7  and  C_8
REMARK    6  A    between atoms: C_8  and  C_9
REMARK    7  A    between atoms: C_13  and  C_14
REMARK    8  A    between atoms: C_24  and  C_25
REMARK                            x       y       z     vdW  Elec       q    Type
REMARK                         _______ _______ _______ _____ _____    ______ ____
ROOT
ATOM      1  C   UNL     1      47.458   4.323  15.775  0.00  0.00    +0.000 C 
ENDROOT
BRANCH   1   2
ATOM      2  O   UNL     1      47.333   3.474  14.622  0.00  0.00    +0.000 OA
BRANCH   2   5
ATOM      3  C   UNL     1      45.201   5.834  12.830  0.00  0.00    +0.000 A 
ATOM      4  C   UNL     1      46.182   5.328  13.695  0.00  0.00    +0.000 A 
ATOM      5  C   UNL     1      46.383   3.957  13.740  0.00  0.00    +0.000 A 
ATOM      6  N   UNL     1      45.690   3.079  12.989  0.00  0.00    +0.000 NA
ATOM      7  C   UNL     1      44.749   3.585  12.163  0.00  0.00    +0.000 A 
ATOM      8  C   UNL     1      44.456   4.937  12.048  0.00  0.00    +0.000 A 
BRANCH   8   9
ATOM      9  C   UNL     1      43.376   5.287  11.086  0.00  0.00    +0.000 C 
ATOM     10  N   UNL     1      42.378   6.107  11.505  0.00  0.00    +0.000 N 
ATOM     11  O   UNL     1      43.377   4.861   9.938  0.00  0.00    +0.000 OA
ATOM     12  H   UNL     1      42.324   6.432  12.465  0.00  0.00    +0.000 HD
ATOM     13  H   UNL     1      41.624   6.314  10.859  0.00  0.00    +0.000 HD
ENDBRANCH   8   9
BRANCH   3  15
ATOM     14  C   UNL     1      45.894   8.042  12.240  0.00  0.00    +0.000 C 
ATOM     15  O   UNL     1      44.888   7.169  12.744  0.00  0.00    +0.000 OA
ENDBRANCH   3  15
ENDBRANCH   2   5
ENDBRANCH   1   2
BRANCH   1  16
ATOM     16  C   UNL     1      47.681   3.475  17.021  0.00  0.00    +0.000 C 
BRANCH  16  17
ATOM     17  C   UNL     1      49.149   3.181  17.260  0.00  0.00    +0.000 A 
ATOM     18  C   UNL     1      49.653   1.950  16.818  0.00  0.00    +0.000 A 
ATOM     19  C   UNL     1      50.978   1.609  17.052  0.00  0.00    +0.000 A 
ATOM     20  C   UNL     1      51.804   2.472  17.776  0.00  0.00    +0.000 A 
ATOM     21  C   UNL     1      51.359   3.733  18.234  0.00  0.00    +0.000 A 
ATOM     22  C   UNL     1      50.026   4.095  17.897  0.00  0.00    +0.000 A 
ATOM     23 CL   UNL     1      49.442   5.718  18.162  0.00  0.00    +0.000 Cl
BRANCH  21  24
ATOM     24  C   UNL     1      52.286   4.565  19.063  0.00  0.00    +0.000 A 
ATOM     25  C   UNL     1      52.142   4.665  20.462  0.00  0.00    +0.000 A 
ATOM     26  C   UNL     1      52.978   5.486  21.233  0.00  0.00    +0.000 A 
ATOM     27  C   UNL     1      54.004   6.205  20.630  0.00  0.00    +0.000 A 
ATOM     28  C   UNL     1      54.171   6.129  19.254  0.00  0.00    +0.000 A 
ATOM     29  C   UNL     1      53.303   5.347  18.484  0.00  0.00    +0.000 A 
ENDBRANCH  21  24
ENDBRANCH  16  17
ENDBRANCH   1  16
TORSDOF 7
ENDMDL
MODEL 7
REMARK VINA RESULT:    -7.054      3.679      9.622
REMARK INTER + INTRA:         -10.490
REMARK INTER:                  -9.407
REMARK INTRA:                  -1.084
REMARK UNBOUND:                -0.550
REMARK  Name = 
REMARK  8 active torsions:
REMARK  status: ('A' for Active; 'I' for Inactive)
REMARK    1  A    between atoms: C_1  and  O_2
REMARK    2  A    between atoms: O_2  and  C_3
REMARK    3  A    between atoms: C_5  and  O_6
REMARK    4  A    between atoms: O_6  and  C_7
REMARK    5  A    between atoms: C_7  and  C_8
REMARK    6  A    between atoms: C_8  and  C_9
REMARK    7  A    between atoms: C_13  and  C_14
REMARK    8  A    between atoms: C_24  and  C_25
REMARK                            x       y       z     vdW  Elec       q    Type
REMARK                         _______ _______ _______ _____ _____    ______ ____
ROOT
ATOM      1  C   UNL     1      47.214   3.953  15.852  0.00  0.00    +0.000 C 
ENDROOT
BRANCH   1   2
ATOM      2  O   UNL     1      47.708   3.597  14.551  0.00  0.00    +0.000 OA
BRANCH   2   5
ATOM      3  C   UNL     1      45.912   5.669  12.142  0.00  0.00    +0.000 A 
ATOM      4  C   UNL     1      46.829   5.277  13.127  0.00  0.00    +0.000 A 
ATOM      5  C   UNL     1      46.817   3.958  13.556  0.00  0.00    +0.000 A 
ATOM      6  N   UNL     1      45.975   3.026  13.071  0.00  0.00    +0.000 NA
ATOM      7  C   UNL     1      45.098   3.423  12.124  0.00  0.00    +0.000 A 
ATOM      8  C   UNL     1      45.013   4.718  11.631  0.00  0.00    +0.000 A 
BRANCH   8   9
ATOM      9  C   UNL     1      43.971   4.952  10.596  0.00  0.00    +0.000 C 
ATOM     10  N   UNL     1      44.229   4.566   9.320  0.00  0.00    +0.000 N 
ATOM     11  O   UNL     1      42.897   5.471  10.873  0.00  0.00    +0.000 OA
ATOM     12  H   UNL     1      45.129   4.183   9.051  0.00  0.00    +0.000 HD
ATOM     13  H   UNL     1      43.532   4.761   8.609  0.00  0.00    +0.000 HD
ENDBRANCH   8   9
BRANCH   3  15
ATOM     14  C   UNL     1      45.507   7.969  12.639  0.00  0.00    +0.000 C 
ATOM     15  O   UNL     1      45.806   6.959  11.681  0.00  0.00    +0.000 OA
ENDBRANCH   3  15
ENDBRANCH   2   5
ENDBRANCH   1   2
BRANCH   1  16
ATOM     16  C   UNL     1      48.381   4.233  16.791  0.00  0.00    +0.000 C 
BRANCH  16  17
ATOM     17  C   UNL     1      48.532   5.711  17.094  0.00  0.00    +0.000 A 
ATOM     18  C   UNL     1      49.378   6.468  16.272  0.00  0.00    +0.000 A 
ATOM     19  C   UNL     1      49.590   7.815  16.532  0.00  0.00    +0.000 A 
ATOM     20  C   UNL     1      48.999   8.412  17.647  0.00  0.00    +0.000 A 
ATOM     21  C   UNL     1      48.124   7.706  18.505  0.00  0.00    +0.000 A 
ATOM     22  C   UNL     1      47.852   6.354  18.159  0.00  0.00    +0.000 A 
ATOM     23 CL   UNL     1      46.592   5.457  18.967  0.00  0.00    +0.000 Cl
BRANCH  21  24
ATOM     24  C   UNL     1      47.591   8.401  19.718  0.00  0.00    +0.000 A 
ATOM     25  C   UNL     1      46.947   9.653  19.633  0.00  0.00    +0.000 A 
ATOM     26  C   UNL     1      46.494  10.329  20.775  0.00  0.00    +0.000 A 
ATOM     27  C   UNL     1      46.642   9.756  22.033  0.00  0.00    +0.000 A 
ATOM     28  C   UNL     1      47.273   8.525  22.151  0.00  0.00    +0.000 A 
ATOM     29  C   UNL     1      47.768   7.878  21.013  0.00  0.00    +0.000 A 
ENDBRANCH  21  24
ENDBRANCH  16  17
ENDBRANCH   1  16
TORSDOF 7
ENDMDL
MODEL 8
REMARK VINA RESULT:    -6.968      4.237      9.449
REMARK INTER + INTRA:         -10.369
REMARK INTER:                  -9.209
REMARK INTRA:                  -1.160
REMARK UNBOUND:                -0.550
REMARK  Name = 
REMARK  8 active torsions:
REMARK  status: ('A' for Active; 'I' for Inactive)
REMARK    1  A    between atoms: C_1  and  O_2
REMARK    2  A    between atoms: O_2  and  C_3
REMARK    3  A    between atoms: C_5  and  O_6
REMARK    4  A    between atoms: O_6  and  C_7
REMARK    5  A    between atoms: C_7  and  C_8
REMARK    6  A    between atoms: C_8  and  C_9
REMARK    7  A    between atoms: C_13  and  C_14
REMARK    8  A    between atoms: C_24  and  C_25
REMARK                            x       y       z     vdW  Elec       q    Type
REMARK                         _______ _______ _______ _____ _____    ______ ____
ROOT
ATOM      1  C   UNL     1      49.152   7.488  14.458  0.00  0.00    +0.000 C 
ENDROOT
BRANCH   1   2
ATOM      2  O   UNL     1      49.062   6.487  13.431  0.00  0.00    +0.000 OA
BRANCH   2   5
ATOM      3  C   UNL     1      45.610   6.290  12.262  0.00  0.00    +0.000 A 
ATOM      4  C   UNL     1      46.938   6.717  12.403  0.00  0.00    +0.000 A 
ATOM      5  C   UNL     1      47.764   6.032  13.282  0.00  0.00    +0.000 A 
ATOM      6  N   UNL     1      47.362   4.970  14.004  0.00  0.00    +0.000 NA
ATOM      7  C   UNL     1      46.079   4.574  13.856  0.00  0.00    +0.000 A 
ATOM      8  C   UNL     1      45.163   5.193  13.017  0.00  0.00    +0.000 A 
BRANCH   8   9
ATOM      9  C   UNL     1      43.795   4.609  13.005  0.00  0.00    +0.000 C 
ATOM     10  N   UNL     1      42.731   5.452  12.984  0.00  0.00    +0.000 N 
ATOM     11  O   UNL     1      43.616   3.397  13.004  0.00  0.00    +0.000 OA
ATOM     12  H   UNL     1      42.850   6.458  13.037  0.00  0.00    +0.000 HD
ATOM     13  H   UNL     1      41.801   5.051  13.014  0.00  0.00    +0.000 HD
ENDBRANCH   8   9
BRANCH   3  15
ATOM     14  C   UNL     1      44.670   8.349  11.499  0.00  0.00    +0.000 C 
ATOM     15  O   UNL     1      44.695   6.926  11.457  0.00  0.00    +0.000 OA
ENDBRANCH   3  15
ENDBRANCH   2   5
ENDBRANCH   1   2
BRANCH   1  16
ATOM     16  C   UNL     1      49.974   6.959  15.626  0.00  0.00    +0.000 C 
BRANCH  16  17
ATOM     17  C   UNL     1      49.115   6.635  16.832  0.00  0.00    +0.000 A 
ATOM     18  C   UNL     1      48.552   5.354  16.914  0.00  0.00    +0.000 A 
ATOM     19  C   UNL     1      47.719   5.018  17.972  0.00  0.00    +0.000 A 
ATOM     20  C   UNL     1      47.397   5.974  18.937  0.00  0.00    +0.000 A 
ATOM     21  C   UNL     1      47.944   7.277  18.919  0.00  0.00    +0.000 A 
ATOM     22  C   UNL     1      48.868   7.562  17.876  0.00  0.00    +0.000 A 
ATOM     23 CL   UNL     1      49.816   9.028  17.891  0.00  0.00    +0.000 Cl
BRANCH  21  24
ATOM     24  C   UNL     1      47.490   8.263  19.950  0.00  0.00    +0.000 A 
ATOM     25  C   UNL     1      47.472   7.943  21.324  0.00  0.00    +0.000 A 
ATOM     26  C   UNL     1      46.997   8.847  22.285  0.00  0.00    +0.000 A 
ATOM     27  C   UNL     1      46.559  10.110  21.903  0.00  0.00    +0.000 A 
ATOM     28  C   UNL     1      46.563  10.455  20.558  0.00  0.00    +0.000 A 
ATOM     29  C   UNL     1      46.991   9.531  19.598  0.00  0.00    +0.000 A 
ENDBRANCH  21  24
ENDBRANCH  16  17
ENDBRANCH   1  16
TORSDOF 7
ENDMDL
MODEL 9
REMARK VINA RESULT:    -6.872      3.618      9.011
REMARK INTER + INTRA:         -10.234
REMARK INTER:                  -8.928
REMARK INTRA:                  -1.306
REMARK UNBOUND:                -0.550
REMARK  Name = 
REMARK  8 active torsions:
REMARK  status: ('A' for Active; 'I' for Inactive)
REMARK    1  A    between atoms: C_1  and  O_2
REMARK    2  A    between atoms: O_2  and  C_3
REMARK    3  A    between atoms: C_5  and  O_6
REMARK    4  A    between atoms: O_6  and  C_7
REMARK    5  A    between atoms: C_7  and  C_8
REMARK    6  A    between atoms: C_8  and  C_9
REMARK    7  A    between atoms: C_13  and  C_14
REMARK    8  A    between atoms: C_24  and  C_25
REMARK                            x       y       z     vdW  Elec       q    Type
REMARK                         _______ _______ _______ _____ _____    ______ ____
ROOT
ATOM      1  C   UNL     1      47.243   3.662  15.855  0.00  0.00    +0.000 C 
ENDROOT
BRANCH   1   2
ATOM      2  O   UNL     1      47.476   3.325  14.478  0.00  0.00    +0.000 OA
BRANCH   2   5
ATOM      3  C   UNL     1      45.288   5.778  12.892  0.00  0.00    +0.000 A 
ATOM      4  C   UNL     1      46.296   5.227  13.695  0.00  0.00    +0.000 A 
ATOM      5  C   UNL     1      46.498   3.855  13.656  0.00  0.00    +0.000 A 
ATOM      6  N   UNL     1      45.781   3.021  12.880  0.00  0.00    +0.000 NA
ATOM      7  C   UNL     1      44.813   3.570  12.115  0.00  0.00    +0.000 A 
ATOM      8  C   UNL     1      44.517   4.925  12.085  0.00  0.00    +0.000 A 
BRANCH   8   9
ATOM      9  C   UNL     1      43.406   5.327  11.181  0.00  0.00    +0.000 C 
ATOM     10  N   UNL     1      42.489   6.217  11.639  0.00  0.00    +0.000 N 
ATOM     11  O   UNL     1      43.312   4.882  10.044  0.00  0.00    +0.000 OA
ATOM     12  H   UNL     1      42.512   6.562  12.593  0.00  0.00    +0.000 HD
ATOM     13  H   UNL     1      41.712   6.460  11.034  0.00  0.00    +0.000 HD
ENDBRANCH   8   9
BRANCH   3  15
ATOM     14  C   UNL     1      46.055   8.040  12.934  0.00  0.00    +0.000 C 
ATOM     15  O   UNL     1      44.972   7.116  12.890  0.00  0.00    +0.000 OA
ENDBRANCH   3  15
ENDBRANCH   2   5
ENDBRANCH   1   2
BRANCH   1  16
ATOM     16  C   UNL     1      48.520   3.464  16.661  0.00  0.00    +0.000 C 
BRANCH  16  17
ATOM     17  C   UNL     1      48.656   4.477  17.781  0.00  0.00    +0.000 A 
ATOM     18  C   UNL     1      48.549   4.017  19.100  0.00  0.00    +0.000 A 
ATOM     19  C   UNL     1      48.619   4.907  20.163  0.00  0.00    +0.000 A 
ATOM     20  C   UNL     1      48.745   6.276  19.919  0.00  0.00    +0.000 A 
ATOM     21  C   UNL     1      48.872   6.801  18.612  0.00  0.00    +0.000 A 
ATOM     22  C   UNL     1      48.893   5.856  17.550  0.00  0.00    +0.000 A 
ATOM     23 CL   UNL     1      49.313   6.339  15.926  0.00  0.00    +0.000 Cl
BRANCH  21  24
ATOM     24  C   UNL     1      48.930   8.286  18.435  0.00  0.00    +0.000 A 
ATOM     25  C   UNL     1      47.763   9.061  18.280  0.00  0.00    +0.000 A 
ATOM     26  C   UNL     1      47.819  10.445  18.062  0.00  0.00    +0.000 A 
ATOM     27  C   UNL     1      49.046  11.099  18.026  0.00  0.00    +0.000 A 
ATOM     28  C   UNL     1      50.214  10.364  18.175  0.00  0.00    +0.000 A 
ATOM     29  C   UNL     1      50.153   8.976  18.342  0.00  0.00    +0.000 A 
ENDBRANCH  21  24
ENDBRANCH  16  17
ENDBRANCH   1  16
TORSDOF 7
ENDMDL
