MODEL 1
REMARK VINA RESULT:    -8.184      0.000      0.000
REMARK INTER + INTRA:         -12.184
REMARK INTER:                 -11.054
REMARK INTRA:                  -1.130
REMARK UNBOUND:                -1.130
REMARK  Name = 
REMARK  6 active torsions:
REMARK  status: ('A' for Active; 'I' for Inactive)
REMARK    1  A    between atoms: C_2  and  C_4
REMARK    2  A    between atoms: C_7  and  O_8
REMARK    3  A    between atoms: O_8  and  C_9
REMARK    4  A    between atoms: C_9  and  C_10
REMARK    5  A    between atoms: C_10  and  C_11
REMARK    6  A    between atoms: C_15  and  C_16
REMARK                            x       y       z     vdW  Elec       q    Type
REMARK                         _______ _______ _______ _____ _____    ______ ____
ROOT
ATOM      1  C   UNL     1      43.193   4.848  10.921  0.00  0.00    +0.000 C 
ENDROOT
BRANCH   1   2
ATOM      2  O   UNL     1      43.511   3.501  10.560  0.00  0.00    +0.000 OA
BRANCH   2   6
ATOM      3  C   UNL     1      46.358   2.710   7.703  0.00  0.00    +0.000 A 
ATOM      4  C   UNL     1      46.011   4.047   7.880  0.00  0.00    +0.000 A 
ATOM      5  C   UNL     1      45.046   4.362   8.836  0.00  0.00    +0.000 A 
ATOM      6  C   UNL     1      44.459   3.346   9.586  0.00  0.00    +0.000 A 
ATOM      7  C   UNL     1      44.868   2.039   9.326  0.00  0.00    +0.000 A 
ATOM      8  N   UNL     1      45.799   1.687   8.403  0.00  0.00    +0.000 NA
BRANCH   3  10
ATOM      9  N   UNL     1      47.452   3.167   5.589  0.00  0.00    +0.000 N 
ATOM     10  C   UNL     1      47.394   2.352   6.684  0.00  0.00    +0.000 C 
ATOM     11  O   UNL     1      48.145   1.393   6.815  0.00  0.00    +0.000 OA
ATOM     12  H   UNL     1      48.130   2.986   4.865  0.00  0.00    +0.000 HD
ATOM     13  H   UNL     1      46.816   3.954   5.517  0.00  0.00    +0.000 HD
ENDBRANCH   3  10
ENDBRANCH   2   6
ENDBRANCH   1   2
BRANCH   1  14
ATOM     14  C   UNL     1      43.333   5.009  12.436  0.00  0.00    +0.000 C 
BRANCH  14  15
ATOM     15  C   UNL     1      44.765   5.304  12.808  0.00  0.00    +0.000 A 
ATOM     16  C   UNL     1      45.571   4.321  13.387  0.00  0.00    +0.000 A 
ATOM     17  C   UNL     1      46.910   4.587  13.653  0.00  0.00    +0.000 A 
ATOM     18  C   UNL     1      47.461   5.828  13.320  0.00  0.00    +0.000 A 
ATOM     19  C   UNL     1      46.693   6.829  12.701  0.00  0.00    +0.000 A 
ATOM     20  C   UNL     1      45.332   6.547  12.480  0.00  0.00    +0.000 A 
BRANCH  19  21
ATOM     21  C   UNL     1      47.299   8.093  12.215  0.00  0.00    +0.000 A 
ATOM     22  C   UNL     1      46.558   9.290  12.195  0.00  0.00    +0.000 A 
ATOM     23  C   UNL     1      47.142  10.508  11.835  0.00  0.00    +0.000 A 
ATOM     24  C   UNL     1      48.488  10.559  11.489  0.00  0.00    +0.000 A 
ATOM     25  C   UNL     1      49.241   9.390  11.480  0.00  0.00    +0.000 A 
ATOM     26  C   UNL     1      48.650   8.170  11.828  0.00  0.00    +0.000 A 
ENDBRANCH  19  21
ENDBRANCH  14  15
ENDBRANCH   1  14
TORSDOF 6
ENDMDL
MODEL 2
REMARK VINA RESULT:    -8.101      3.540      7.213
REMARK INTER + INTRA:         -12.072
REMARK INTER:                 -11.143
REMARK INTRA:                  -0.929
REMARK UNBOUND:                -1.130
REMARK  Name = 
REMARK  6 active torsions:
REMARK  status: ('A' for Active; 'I' for Inactive)
REMARK    1  A    between atoms: C_2  and  C_4
REMARK    2  A    between atoms: C_7  and  O_8
REMARK    3  A    between atoms: O_8  and  C_9
REMARK    4  A    between atoms: C_9  and  C_10
REMARK    5  A    between atoms: C_10  and  C_11
REMARK    6  A    between atoms: C_15  and  C_16
REMARK                            x       y       z     vdW  Elec       q    Type
REMARK                         _______ _______ _______ _____ _____    ______ ____
ROOT
ATOM      1  C   UNL     1      45.781   7.136  12.636  0.00  0.00    +0.000 C 
ENDROOT
BRANCH   1   2
ATOM      2  O   UNL     1      46.950   6.313  12.580  0.00  0.00    +0.000 OA
BRANCH   2   6
ATOM      3  C   UNL     1      47.765   4.053  15.914  0.00  0.00    +0.000 A 
ATOM      4  C   UNL     1      48.211   5.372  15.934  0.00  0.00    +0.000 A 
ATOM      5  C   UNL     1      47.960   6.175  14.822  0.00  0.00    +0.000 A 
ATOM      6  C   UNL     1      47.276   5.648  13.729  0.00  0.00    +0.000 A 
ATOM      7  C   UNL     1      46.879   4.314  13.804  0.00  0.00    +0.000 A 
ATOM      8  N   UNL     1      47.107   3.495  14.862  0.00  0.00    +0.000 NA
BRANCH   3  10
ATOM      9  N   UNL     1      46.907   2.683  17.720  0.00  0.00    +0.000 N 
ATOM     10  C   UNL     1      48.021   3.176  17.099  0.00  0.00    +0.000 C 
ATOM     11  O   UNL     1      49.150   2.911  17.494  0.00  0.00    +0.000 OA
ATOM     12  H   UNL     1      47.007   2.081  18.523  0.00  0.00    +0.000 HD
ATOM     13  H   UNL     1      45.988   2.922  17.363  0.00  0.00    +0.000 HD
ENDBRANCH   3  10
ENDBRANCH   2   6
ENDBRANCH   1   2
BRANCH   1  14
ATOM     14  C   UNL     1      45.016   7.013  11.318  0.00  0.00    +0.000 C 
BRANCH  14  15
ATOM     15  C   UNL     1      44.716   5.567  11.010  0.00  0.00    +0.000 A 
ATOM     16  C   UNL     1      43.682   4.896  11.666  0.00  0.00    +0.000 A 
ATOM     17  C   UNL     1      43.370   3.586  11.314  0.00  0.00    +0.000 A 
ATOM     18  C   UNL     1      44.072   2.946  10.289  0.00  0.00    +0.000 A 
ATOM     19  C   UNL     1      45.094   3.601   9.579  0.00  0.00    +0.000 A 
ATOM     20  C   UNL     1      45.415   4.911   9.983  0.00  0.00    +0.000 A 
BRANCH  19  21
ATOM     21  C   UNL     1      45.747   2.985   8.399  0.00  0.00    +0.000 A 
ATOM     22  C   UNL     1      46.062   3.753   7.262  0.00  0.00    +0.000 A 
ATOM     23  C   UNL     1      46.766   3.212   6.183  0.00  0.00    +0.000 A 
ATOM     24  C   UNL     1      47.179   1.885   6.217  0.00  0.00    +0.000 A 
ATOM     25  C   UNL     1      46.866   1.095   7.318  0.00  0.00    +0.000 A 
ATOM     26  C   UNL     1      46.149   1.636   8.390  0.00  0.00    +0.000 A 
ENDBRANCH  19  21
ENDBRANCH  14  15
ENDBRANCH   1  14
TORSDOF 6
ENDMDL
MODEL 3
REMARK VINA RESULT:    -8.077      1.920      3.760
REMARK INTER + INTRA:         -12.040
REMARK INTER:                 -10.977
REMARK INTRA:                  -1.063
REMARK UNBOUND:                -1.130
REMARK  Name = 
REMARK  6 active torsions:
REMARK  status: ('A' for Active; 'I' for Inactive)
REMARK    1  A    between atoms: C_2  and  C_4
REMARK    2  A    between atoms: C_7  and  O_8
REMARK    3  A    between atoms: O_8  and  C_9
REMARK    4  A    between atoms: C_9  and  C_10
REMARK    5  A    between atoms: C_10  and  C_11
REMARK    6  A    between atoms: C_15  and  C_16
REMARK                            x       y       z     vdW  Elec       q    Type
REMARK                         _______ _______ _______ _____ _____    ______ ____
ROOT
ATOM      1  C   UNL     1      43.863   3.153  11.714  0.00  0.00    +0.000 C 
ENDROOT
BRANCH   1   2
ATOM      2  O   UNL     1      43.435   3.160  10.349  0.00  0.00    +0.000 OA
BRANCH   2   6
ATOM      3  C   UNL     1      46.423   2.611   7.583  0.00  0.00    +0.000 A 
ATOM      4  C   UNL     1      45.975   3.916   7.761  0.00  0.00    +0.000 A 
ATOM      5  C   UNL     1      44.959   4.150   8.687  0.00  0.00    +0.000 A 
ATOM      6  C   UNL     1      44.422   3.085   9.406  0.00  0.00    +0.000 A 
ATOM      7  C   UNL     1      44.933   1.814   9.148  0.00  0.00    +0.000 A 
ATOM      8  N   UNL     1      45.916   1.541   8.253  0.00  0.00    +0.000 NA
BRANCH   3  10
ATOM      9  N   UNL     1      47.431   3.027   5.418  0.00  0.00    +0.000 N 
ATOM     10  C   UNL     1      47.516   2.339   6.596  0.00  0.00    +0.000 C 
ATOM     11  O   UNL     1      48.429   1.555   6.820  0.00  0.00    +0.000 OA
ATOM     12  H   UNL     1      48.136   2.895   4.709  0.00  0.00    +0.000 HD
ATOM     13  H   UNL     1      46.661   3.671   5.268  0.00  0.00    +0.000 HD
ENDBRANCH   3  10
ENDBRANCH   2   6
ENDBRANCH   1   2
BRANCH   1  14
ATOM     14  C   UNL     1      43.815   4.579  12.264  0.00  0.00    +0.000 C 
BRANCH  14  15
ATOM     15  C   UNL     1      45.204   5.071  12.588  0.00  0.00    +0.000 A 
ATOM     16  C   UNL     1      45.843   6.001  11.766  0.00  0.00    +0.000 A 
ATOM     17  C   UNL     1      47.092   6.502  12.121  0.00  0.00    +0.000 A 
ATOM     18  C   UNL     1      47.701   6.095  13.312  0.00  0.00    +0.000 A 
ATOM     19  C   UNL     1      47.072   5.189  14.185  0.00  0.00    +0.000 A 
ATOM     20  C   UNL     1      45.828   4.669  13.781  0.00  0.00    +0.000 A 
BRANCH  19  21
ATOM     21  C   UNL     1      47.641   4.860  15.515  0.00  0.00    +0.000 A 
ATOM     22  C   UNL     1      48.531   5.741  16.159  0.00  0.00    +0.000 A 
ATOM     23  C   UNL     1      48.998   5.494  17.454  0.00  0.00    +0.000 A 
ATOM     24  C   UNL     1      48.580   4.359  18.140  0.00  0.00    +0.000 A 
ATOM     25  C   UNL     1      47.716   3.461  17.522  0.00  0.00    +0.000 A 
ATOM     26  C   UNL     1      47.262   3.703  16.221  0.00  0.00    +0.000 A 
ENDBRANCH  19  21
ENDBRANCH  14  15
ENDBRANCH   1  14
TORSDOF 6
ENDMDL
MODEL 4
REMARK VINA RESULT:    -7.227      4.773      7.848
REMARK INTER + INTRA:         -10.891
REMARK INTER:                 -10.240
REMARK INTRA:                  -0.651
REMARK UNBOUND:                -1.130
REMARK  Name = 
REMARK  6 active torsions:
REMARK  status: ('A' for Active; 'I' for Inactive)
REMARK    1  A    between atoms: C_2  and  C_4
REMARK    2  A    between atoms: C_7  and  O_8
REMARK    3  A    between atoms: O_8  and  C_9
REMARK    4  A    between atoms: C_9  and  C_10
REMARK    5  A    between atoms: C_10  and  C_11
REMARK    6  A    between atoms: C_15  and  C_16
REMARK                            x       y       z     vdW  Elec       q    Type
REMARK                         _______ _______ _______ _____ _____    ______ ____
ROOT
ATOM      1  C   UNL     1      46.756   3.937  14.418  0.00  0.00    +0.000 C 
ENDROOT
BRANCH   1   2
ATOM      2  O   UNL     1      46.842   3.898  15.845  0.00  0.00    +0.000 OA
BRANCH   2   6
ATOM      3  C   UNL     1      50.390   2.354  17.228  0.00  0.00    +0.000 A 
ATOM      4  C   UNL     1      49.988   3.570  17.774  0.00  0.00    +0.000 A 
ATOM      5  C   UNL     1      48.792   4.134  17.332  0.00  0.00    +0.000 A 
ATOM      6  C   UNL     1      48.033   3.476  16.366  0.00  0.00    +0.000 A 
ATOM      7  C   UNL     1      48.528   2.268  15.875  0.00  0.00    +0.000 A 
ATOM      8  N   UNL     1      49.688   1.687  16.273  0.00  0.00    +0.000 NA
BRANCH   3  10
ATOM      9  N   UNL     1      52.380   2.455  18.608  0.00  0.00    +0.000 N 
ATOM     10  C   UNL     1      51.670   1.731  17.692  0.00  0.00    +0.000 C 
ATOM     11  O   UNL     1      52.062   0.645  17.284  0.00  0.00    +0.000 OA
ATOM     12  H   UNL     1      53.250   2.092  18.966  0.00  0.00    +0.000 HD
ATOM     13  H   UNL     1      52.023   3.350  18.925  0.00  0.00    +0.000 HD
ENDBRANCH   3  10
ENDBRANCH   2   6
ENDBRANCH   1   2
BRANCH   1  14
ATOM     14  C   UNL     1      45.963   5.174  13.994  0.00  0.00    +0.000 C 
BRANCH  14  15
ATOM     15  C   UNL     1      45.017   4.839  12.868  0.00  0.00    +0.000 A 
ATOM     16  C   UNL     1      43.681   5.243  12.912  0.00  0.00    +0.000 A 
ATOM     17  C   UNL     1      42.843   4.993  11.830  0.00  0.00    +0.000 A 
ATOM     18  C   UNL     1      43.338   4.359  10.686  0.00  0.00    +0.000 A 
ATOM     19  C   UNL     1      44.686   3.972  10.589  0.00  0.00    +0.000 A 
ATOM     20  C   UNL     1      45.501   4.201  11.713  0.00  0.00    +0.000 A 
BRANCH  19  21
ATOM     21  C   UNL     1      45.257   3.430   9.331  0.00  0.00    +0.000 A 
ATOM     22  C   UNL     1      45.719   4.289   8.317  0.00  0.00    +0.000 A 
ATOM     23  C   UNL     1      46.349   3.797   7.170  0.00  0.00    +0.000 A 
ATOM     24  C   UNL     1      46.538   2.429   7.012  0.00  0.00    +0.000 A 
ATOM     25  C   UNL     1      46.074   1.554   7.988  0.00  0.00    +0.000 A 
ATOM     26  C   UNL     1      45.431   2.048   9.128  0.00  0.00    +0.000 A 
ENDBRANCH  19  21
ENDBRANCH  14  15
ENDBRANCH   1  14
TORSDOF 6
ENDMDL
MODEL 5
REMARK VINA RESULT:    -7.051      4.834      8.324
REMARK INTER + INTRA:         -10.654
REMARK INTER:                 -10.135
REMARK INTRA:                  -0.519
REMARK UNBOUND:                -1.130
REMARK  Name = 
REMARK  6 active torsions:
REMARK  status: ('A' for Active; 'I' for Inactive)
REMARK    1  A    between atoms: C_2  and  C_4
REMARK    2  A    between atoms: C_7  and  O_8
REMARK    3  A    between atoms: O_8  and  C_9
REMARK    4  A    between atoms: C_9  and  C_10
REMARK    5  A    between atoms: C_10  and  C_11
REMARK    6  A    between atoms: C_15  and  C_16
REMARK                            x       y       z     vdW  Elec       q    Type
REMARK                         _______ _______ _______ _____ _____    ______ ____
ROOT
ATOM      1  C   UNL     1      47.015   4.276  13.814  0.00  0.00    +0.000 C 
ENDROOT
BRANCH   1   2
ATOM      2  O   UNL     1      47.392   3.218  14.700  0.00  0.00    +0.000 OA
BRANCH   2   6
ATOM      3  C   UNL     1      48.443   4.630  18.413  0.00  0.00    +0.000 A 
ATOM      4  C   UNL     1      48.124   3.278  18.331  0.00  0.00    +0.000 A 
ATOM      5  C   UNL     1      47.758   2.755  17.091  0.00  0.00    +0.000 A 
ATOM      6  C   UNL     1      47.721   3.587  15.974  0.00  0.00    +0.000 A 
ATOM      7  C   UNL     1      48.049   4.929  16.163  0.00  0.00    +0.000 A 
ATOM      8  N   UNL     1      48.406   5.480  17.351  0.00  0.00    +0.000 NA
BRANCH   3  10
ATOM      9  N   UNL     1      49.372   4.324  20.631  0.00  0.00    +0.000 N 
ATOM     10  C   UNL     1      48.843   5.210  19.734  0.00  0.00    +0.000 C 
ATOM     11  O   UNL     1      48.708   6.397  20.002  0.00  0.00    +0.000 OA
ATOM     12  H   UNL     1      49.666   4.648  21.539  0.00  0.00    +0.000 HD
ATOM     13  H   UNL     1      49.471   3.348  20.372  0.00  0.00    +0.000 HD
ENDBRANCH   3  10
ENDBRANCH   2   6
ENDBRANCH   1   2
BRANCH   1  14
ATOM     14  C   UNL     1      45.551   4.642  14.061  0.00  0.00    +0.000 C 
BRANCH  14  15
ATOM     15  C   UNL     1      44.777   4.643  12.766  0.00  0.00    +0.000 A 
ATOM     16  C   UNL     1      43.606   5.392  12.633  0.00  0.00    +0.000 A 
ATOM     17  C   UNL     1      42.948   5.443  11.408  0.00  0.00    +0.000 A 
ATOM     18  C   UNL     1      43.468   4.767  10.301  0.00  0.00    +0.000 A 
ATOM     19  C   UNL     1      44.665   4.034  10.385  0.00  0.00    +0.000 A 
ATOM     20  C   UNL     1      45.287   3.967  11.646  0.00  0.00    +0.000 A 
BRANCH  19  21
ATOM     21  C   UNL     1      45.300   3.431   9.187  0.00  0.00    +0.000 A 
ATOM     22  C   UNL     1      45.812   4.241   8.155  0.00  0.00    +0.000 A 
ATOM     23  C   UNL     1      46.502   3.695   7.068  0.00  0.00    +0.000 A 
ATOM     24  C   UNL     1      46.701   2.321   6.990  0.00  0.00    +0.000 A 
ATOM     25  C   UNL     1      46.190   1.494   7.985  0.00  0.00    +0.000 A 
ATOM     26  C   UNL     1      45.488   2.042   9.063  0.00  0.00    +0.000 A 
ENDBRANCH  19  21
ENDBRANCH  14  15
ENDBRANCH   1  14
TORSDOF 6
ENDMDL
MODEL 6
REMARK VINA RESULT:    -6.934      4.358      7.587
REMARK INTER + INTRA:         -10.496
REMARK INTER:                  -9.273
REMARK INTRA:                  -1.223
REMARK UNBOUND:                -1.130
REMARK  Name = 
REMARK  6 active torsions:
REMARK  status: ('A' for Active; 'I' for Inactive)
REMARK    1  A    between atoms: C_2  and  C_4
REMARK    2  A    between atoms: C_7  and  O_8
REMARK    3  A    between atoms: O_8  and  C_9
REMARK    4  A    between atoms: C_9  and  C_10
REMARK    5  A    between atoms: C_10  and  C_11
REMARK    6  A    between atoms: C_15  and  C_16
REMARK                            x       y       z     vdW  Elec       q    Type
REMARK                         _______ _______ _______ _____ _____    ______ ____
ROOT
ATOM      1  C   UNL     1      49.528   7.275  13.133  0.00  0.00    +0.000 C 
ENDROOT
BRANCH   1   2
ATOM      2  O   UNL     1      48.984   7.562  14.425  0.00  0.00    +0.000 OA
BRANCH   2   6
ATOM      3  C   UNL     1      47.908   4.421  16.846  0.00  0.00    +0.000 A 
ATOM      4  C   UNL     1      47.305   4.473  15.592  0.00  0.00    +0.000 A 
ATOM      5  C   UNL     1      47.637   5.523  14.738  0.00  0.00    +0.000 A 
ATOM      6  C   UNL     1      48.556   6.486  15.151  0.00  0.00    +0.000 A 
ATOM      7  C   UNL     1      49.096   6.350  16.429  0.00  0.00    +0.000 A 
ATOM      8  N   UNL     1      48.798   5.347  17.294  0.00  0.00    +0.000 NA
BRANCH   3  10
ATOM      9  N   UNL     1      48.395   3.155  18.854  0.00  0.00    +0.000 N 
ATOM     10  C   UNL     1      47.568   3.298  17.776  0.00  0.00    +0.000 C 
ATOM     11  O   UNL     1      46.613   2.554  17.591  0.00  0.00    +0.000 OA
ATOM     12  H   UNL     1      48.221   2.421  19.524  0.00  0.00    +0.000 HD
ATOM     13  H   UNL     1      49.174   3.793  18.976  0.00  0.00    +0.000 HD
ENDBRANCH   3  10
ENDBRANCH   2   6
ENDBRANCH   1   2
BRANCH   1  14
ATOM     14  C   UNL     1      48.873   8.189  12.097  0.00  0.00    +0.000 C 
BRANCH  14  15
ATOM     15  C   UNL     1      47.408   7.860  11.948  0.00  0.00    +0.000 A 
ATOM     16  C   UNL     1      46.427   8.793  12.290  0.00  0.00    +0.000 A 
ATOM     17  C   UNL     1      45.084   8.501  12.074  0.00  0.00    +0.000 A 
ATOM     18  C   UNL     1      44.712   7.286  11.492  0.00  0.00    +0.000 A 
ATOM     19  C   UNL     1      45.672   6.337  11.100  0.00  0.00    +0.000 A 
ATOM     20  C   UNL     1      47.020   6.641  11.366  0.00  0.00    +0.000 A 
BRANCH  19  21
ATOM     21  C   UNL     1      45.300   5.109  10.354  0.00  0.00    +0.000 A 
ATOM     22  C   UNL     1      45.621   4.965   8.991  0.00  0.00    +0.000 A 
ATOM     23  C   UNL     1      45.368   3.776   8.300  0.00  0.00    +0.000 A 
ATOM     24  C   UNL     1      44.790   2.697   8.959  0.00  0.00    +0.000 A 
ATOM     25  C   UNL     1      44.444   2.816  10.301  0.00  0.00    +0.000 A 
ATOM     26  C   UNL     1      44.686   4.012  10.986  0.00  0.00    +0.000 A 
ENDBRANCH  19  21
ENDBRANCH  14  15
ENDBRANCH   1  14
TORSDOF 6
ENDMDL
MODEL 7
REMARK VINA RESULT:    -6.838      3.981      7.528
REMARK INTER + INTRA:         -10.366
REMARK INTER:                  -9.622
REMARK INTRA:                  -0.744
REMARK UNBOUND:                -1.130
REMARK  Name = 
REMARK  6 active torsions:
REMARK  status: ('A' for Active; 'I' for Inactive)
REMARK    1  A    between atoms: C_2  and  C_4
REMARK    2  A    between atoms: C_7  and  O_8
REMARK    3  A    between atoms: O_8  and  C_9
REMARK    4  A    between atoms: C_9  and  C_10
REMARK    5  A    between atoms: C_10  and  C_11
REMARK    6  A    between atoms: C_15  and  C_16
REMARK                            x       y       z     vdW  Elec       q    Type
REMARK                         _______ _______ _______ _____ _____    ______ ____
ROOT
ATOM      1  C   UNL     1      46.207   7.285  11.644  0.00  0.00    +0.000 C 
ENDROOT
BRANCH   1   2
ATOM      2  O   UNL     1      46.346   8.166  12.762  0.00  0.00    +0.000 OA
BRANCH   2   6
ATOM      3  C   UNL     1      49.075   6.789  15.509  0.00  0.00    +0.000 A 
ATOM      4  C   UNL     1      48.955   8.171  15.393  0.00  0.00    +0.000 A 
ATOM      5  C   UNL     1      48.043   8.684  14.471  0.00  0.00    +0.000 A 
ATOM      6  C   UNL     1      47.281   7.813  13.695  0.00  0.00    +0.000 A 
ATOM      7  C   UNL     1      47.484   6.447  13.879  0.00  0.00    +0.000 A 
ATOM      8  N   UNL     1      48.362   5.904  14.761  0.00  0.00    +0.000 NA
BRANCH   3  10
ATOM      9  N   UNL     1      49.495   5.719  17.643  0.00  0.00    +0.000 N 
ATOM     10  C   UNL     1      50.045   6.219  16.496  0.00  0.00    +0.000 C 
ATOM     11  O   UNL     1      51.254   6.196  16.297  0.00  0.00    +0.000 OA
ATOM     12  H   UNL     1      50.091   5.316  18.349  0.00  0.00    +0.000 HD
ATOM     13  H   UNL     1      48.489   5.752  17.771  0.00  0.00    +0.000 HD
ENDBRANCH   3  10
ENDBRANCH   2   6
ENDBRANCH   1   2
BRANCH   1  14
ATOM     14  C   UNL     1      44.724   6.993  11.414  0.00  0.00    +0.000 C 
BRANCH  14  15
ATOM     15  C   UNL     1      44.509   5.527  11.131  0.00  0.00    +0.000 A 
ATOM     16  C   UNL     1      43.528   4.803  11.812  0.00  0.00    +0.000 A 
ATOM     17  C   UNL     1      43.292   3.472  11.484  0.00  0.00    +0.000 A 
ATOM     18  C   UNL     1      44.015   2.861  10.456  0.00  0.00    +0.000 A 
ATOM     19  C   UNL     1      44.984   3.567   9.721  0.00  0.00    +0.000 A 
ATOM     20  C   UNL     1      45.230   4.900  10.101  0.00  0.00    +0.000 A 
BRANCH  19  21
ATOM     21  C   UNL     1      45.656   2.975   8.538  0.00  0.00    +0.000 A 
ATOM     22  C   UNL     1      46.062   3.780   7.457  0.00  0.00    +0.000 A 
ATOM     23  C   UNL     1      46.784   3.255   6.381  0.00  0.00    +0.000 A 
ATOM     24  C   UNL     1      47.123   1.907   6.363  0.00  0.00    +0.000 A 
ATOM     25  C   UNL     1      46.719   1.082   7.408  0.00  0.00    +0.000 A 
ATOM     26  C   UNL     1      45.984   1.608   8.476  0.00  0.00    +0.000 A 
ENDBRANCH  19  21
ENDBRANCH  14  15
ENDBRANCH   1  14
TORSDOF 6
ENDMDL
MODEL 8
REMARK VINA RESULT:    -6.310      4.662      7.035
REMARK INTER + INTRA:          -9.653
REMARK INTER:                  -8.692
REMARK INTRA:                  -0.961
REMARK UNBOUND:                -1.130
REMARK  Name = 
REMARK  6 active torsions:
REMARK  status: ('A' for Active; 'I' for Inactive)
REMARK    1  A    between atoms: C_2  and  C_4
REMARK    2  A    between atoms: C_7  and  O_8
REMARK    3  A    between atoms: O_8  and  C_9
REMARK    4  A    between atoms: C_9  and  C_10
REMARK    5  A    between atoms: C_10  and  C_11
REMARK    6  A    between atoms: C_15  and  C_16
REMARK                            x       y       z     vdW  Elec       q    Type
REMARK                         _______ _______ _______ _____ _____    ______ ____
ROOT
ATOM      1  C   UNL     1      48.517   6.542  14.350  0.00  0.00    +0.000 C 
ENDROOT
BRANCH   1   2
ATOM      2  O   UNL     1      47.325   7.094  13.785  0.00  0.00    +0.000 OA
BRANCH   2   6
ATOM      3  C   UNL     1      45.086   4.787  11.225  0.00  0.00    +0.000 A 
ATOM      4  C   UNL     1      45.313   4.263  12.494  0.00  0.00    +0.000 A 
ATOM      5  C   UNL     1      46.071   5.009  13.396  0.00  0.00    +0.000 A 
ATOM      6  C   UNL     1      46.577   6.249  13.012  0.00  0.00    +0.000 A 
ATOM      7  C   UNL     1      46.302   6.680  11.715  0.00  0.00    +0.000 A 
ATOM      8  N   UNL     1      45.575   5.985  10.805  0.00  0.00    +0.000 NA
BRANCH   3  10
ATOM      9  N   UNL     1      44.319   4.445   8.951  0.00  0.00    +0.000 N 
ATOM     10  C   UNL     1      44.272   4.003  10.243  0.00  0.00    +0.000 C 
ATOM     11  O   UNL     1      43.606   3.028  10.568  0.00  0.00    +0.000 OA
ATOM     12  H   UNL     1      43.797   3.961   8.237  0.00  0.00    +0.000 HD
ATOM     13  H   UNL     1      44.885   5.255   8.719  0.00  0.00    +0.000 HD
ENDBRANCH   3  10
ENDBRANCH   2   6
ENDBRANCH   1   2
BRANCH   1  14
ATOM     14  C   UNL     1      48.478   6.708  15.870  0.00  0.00    +0.000 C 
BRANCH  14  15
ATOM     15  C   UNL     1      48.481   5.363  16.551  0.00  0.00    +0.000 A 
ATOM     16  C   UNL     1      47.296   4.643  16.718  0.00  0.00    +0.000 A 
ATOM     17  C   UNL     1      47.328   3.370  17.279  0.00  0.00    +0.000 A 
ATOM     18  C   UNL     1      48.546   2.797  17.655  0.00  0.00    +0.000 A 
ATOM     19  C   UNL     1      49.764   3.473  17.468  0.00  0.00    +0.000 A 
ATOM     20  C   UNL     1      49.698   4.775  16.935  0.00  0.00    +0.000 A 
BRANCH  19  21
ATOM     21  C   UNL     1      51.071   2.822  17.729  0.00  0.00    +0.000 A 
ATOM     22  C   UNL     1      51.297   1.482  17.362  0.00  0.00    +0.000 A 
ATOM     23  C   UNL     1      52.552   0.883  17.510  0.00  0.00    +0.000 A 
ATOM     24  C   UNL     1      53.616   1.614  18.025  0.00  0.00    +0.000 A 
ATOM     25  C   UNL     1      53.418   2.935  18.415  0.00  0.00    +0.000 A 
ATOM     26  C   UNL     1      52.158   3.527  18.279  0.00  0.00    +0.000 A 
ENDBRANCH  19  21
ENDBRANCH  14  15
ENDBRANCH   1  14
TORSDOF 6
ENDMDL
MODEL 9
REMARK VINA RESULT:    -6.215      3.668      6.429
REMARK INTER + INTRA:          -9.525
REMARK INTER:                  -8.216
REMARK INTRA:                  -1.309
REMARK UNBOUND:                -1.130
REMARK  Name = 
REMARK  6 active torsions:
REMARK  status: ('A' for Active; 'I' for Inactive)
REMARK    1  A    between atoms: C_2  and  C_4
REMARK    2  A    between atoms: C_7  and  O_8
REMARK    3  A    between atoms: O_8  and  C_9
REMARK    4  A    between atoms: C_9  and  C_10
REMARK    5  A    between atoms: C_10  and  C_11
REMARK    6  A    between atoms: C_15  and  C_16
REMARK                            x       y       z     vdW  Elec       q    Type
REMARK                         _______ _______ _______ _____ _____    ______ ____
ROOT
ATOM      1  C   UNL     1      47.568   8.611  13.039  0.00  0.00    +0.000 C 
ENDROOT
BRANCH   1   2
ATOM      2  O   UNL     1      47.858   7.442  12.268  0.00  0.00    +0.000 OA
BRANCH   2   6
ATOM      3  C   UNL     1      44.938   4.560  12.041  0.00  0.00    +0.000 A 
ATOM      4  C   UNL     1      45.623   4.655  13.249  0.00  0.00    +0.000 A 
ATOM      5  C   UNL     1      46.626   5.616  13.370  0.00  0.00    +0.000 A 
ATOM      6  C   UNL     1      46.915   6.452  12.294  0.00  0.00    +0.000 A 
ATOM      7  C   UNL     1      46.179   6.270  11.125  0.00  0.00    +0.000 A 
ATOM      8  N   UNL     1      45.199   5.345  10.961  0.00  0.00    +0.000 NA
BRANCH   3  10
ATOM      9  N   UNL     1      44.032   2.383  12.604  0.00  0.00    +0.000 N 
ATOM     10  C   UNL     1      43.856   3.536  11.891  0.00  0.00    +0.000 C 
ATOM     11  O   UNL     1      42.874   3.712  11.181  0.00  0.00    +0.000 OA
ATOM     12  H   UNL     1      43.339   1.652  12.552  0.00  0.00    +0.000 HD
ATOM     13  H   UNL     1      44.857   2.274  13.184  0.00  0.00    +0.000 HD
ENDBRANCH   3  10
ENDBRANCH   2   6
ENDBRANCH   1   2
BRANCH   1  14
ATOM     14  C   UNL     1      48.816   9.018  13.825  0.00  0.00    +0.000 C 
BRANCH  14  15
ATOM     15  C   UNL     1      48.747   8.498  15.239  0.00  0.00    +0.000 A 
ATOM     16  C   UNL     1      48.265   9.302  16.274  0.00  0.00    +0.000 A 
ATOM     17  C   UNL     1      48.136   8.781  17.558  0.00  0.00    +0.000 A 
ATOM     18  C   UNL     1      48.463   7.446  17.812  0.00  0.00    +0.000 A 
ATOM     19  C   UNL     1      48.914   6.593  16.788  0.00  0.00    +0.000 A 
ATOM     20  C   UNL     1      49.073   7.158  15.509  0.00  0.00    +0.000 A 
BRANCH  19  21
ATOM     21  C   UNL     1      49.127   5.143  17.014  0.00  0.00    +0.000 A 
ATOM     22  C   UNL     1      48.106   4.211  16.748  0.00  0.00    +0.000 A 
ATOM     23  C   UNL     1      48.322   2.834  16.860  0.00  0.00    +0.000 A 
ATOM     24  C   UNL     1      49.571   2.354  17.237  0.00  0.00    +0.000 A 
ATOM     25  C   UNL     1      50.595   3.251  17.525  0.00  0.00    +0.000 A 
ATOM     26  C   UNL     1      50.371   4.629  17.426  0.00  0.00    +0.000 A 
ENDBRANCH  19  21
ENDBRANCH  14  15
ENDBRANCH   1  14
TORSDOF 6
ENDMDL
