MODEL 1
REMARK VINA RESULT:    -7.796      0.000      0.000
REMARK INTER + INTRA:         -13.377
REMARK INTER:                 -11.898
REMARK INTRA:                  -1.479
REMARK UNBOUND:                -1.479
REMARK  Name = 
REMARK  12 active torsions:
REMARK  status: ('A' for Active; 'I' for Inactive)
REMARK    1  A    between atoms: C_1  and  C_2
REMARK    2  A    between atoms: C_2  and  C_3
REMARK    3  A    between atoms: C_3  and  O_4
REMARK    4  A    between atoms: O_4  and  C_5
REMARK    5  A    between atoms: C_7  and  C_8
REMARK    6  A    between atoms: C_12  and  O_13
REMARK    7  A    between atoms: O_13  and  C_14
REMARK    8  A    between atoms: C_17  and  C_18
REMARK    9  A    between atoms: C_18  and  C_19
REMARK   10  A    between atoms: C_18  and  C_20
REMARK   11  A    between atoms: C_20  and  N_21
REMARK   12  A    between atoms: C_25  and  C_26
REMARK                            x       y       z     vdW  Elec       q    Type
REMARK                         _______ _______ _______ _____ _____    ______ ____
ROOT
ATOM      1  C   UNL     1      47.229   6.311  13.583  0.00  0.00    +0.000 A 
ATOM      2  C   UNL     1      46.889   7.582  13.133  0.00  0.00    +0.000 A 
ATOM      3  C   UNL     1      45.679   7.760  12.476  0.00  0.00    +0.000 A 
ATOM      4  N   UNL     1      44.804   6.740  12.314  0.00  0.00    +0.000 NA
ATOM      5  C   UNL     1      45.139   5.499  12.726  0.00  0.00    +0.000 A 
ATOM      6  C   UNL     1      46.351   5.254  13.364  0.00  0.00    +0.000 A 
ENDROOT
BRANCH   3   7
ATOM      7  C   UNL     1      45.269   9.042  11.874  0.00  0.00    +0.000 A 
ATOM      8  C   UNL     1      45.988  10.218  12.132  0.00  0.00    +0.000 A 
ATOM      9  C   UNL     1      45.563  11.411  11.574  0.00  0.00    +0.000 A 
ATOM     10  N   UNL     1      44.476  11.526  10.785  0.00  0.00    +0.000 NA
ATOM     11  C   UNL     1      43.780  10.395  10.555  0.00  0.00    +0.000 A 
ATOM     12  C   UNL     1      44.129   9.155  11.065  0.00  0.00    +0.000 A 
BRANCH  11  13
ATOM     13  O   UNL     1      42.641  10.434   9.773  0.00  0.00    +0.000 OA
ATOM     14  C   UNL     1      42.834  11.154   8.560  0.00  0.00    +0.000 C 
ENDBRANCH  11  13
ENDBRANCH   3   7
BRANCH   5  15
ATOM     15  C   UNL     1      44.169   4.361  12.444  0.00  0.00    +0.000 C 
ATOM     16  C   UNL     1      43.043   4.344  13.491  0.00  0.00    +0.000 C 
BRANCH  15  17
ATOM     17  C   UNL     1      43.517   4.406  11.039  0.00  0.00    +0.000 C 
BRANCH  17  18
ATOM     18  N   UNL     1      44.365   5.048  10.024  0.00  0.00    +0.000 N 
ATOM     19  C   UNL     1      45.083   4.144   9.228  0.00  0.00    +0.000 A 
ATOM     20  C   UNL     1      45.859   4.607   8.157  0.00  0.00    +0.000 A 
ATOM     21  N   UNL     1      46.609   3.805   7.348  0.00  0.00    +0.000 NA
ATOM     22  C   UNL     1      46.526   2.481   7.648  0.00  0.00    +0.000 A 
ATOM     23  C   UNL     1      45.739   2.000   8.680  0.00  0.00    +0.000 A 
ATOM     24  N   UNL     1      45.010   2.819   9.479  0.00  0.00    +0.000 NA
ATOM     25  H   UNL     1      44.972   5.771  10.395  0.00  0.00    +0.000 HD
BRANCH  22  26
ATOM     26  C   UNL     1      47.340   1.524   6.852  0.00  0.00    +0.000 C 
ATOM     27  N   UNL     1      48.450   2.041   6.244  0.00  0.00    +0.000 N 
ATOM     28  O   UNL     1      47.046   0.339   6.754  0.00  0.00    +0.000 OA
ATOM     29  H   UNL     1      48.678   3.023   6.349  0.00  0.00    +0.000 HD
ATOM     30  H   UNL     1      49.052   1.429   5.711  0.00  0.00    +0.000 HD
ENDBRANCH  22  26
ENDBRANCH  17  18
ENDBRANCH  15  17
ENDBRANCH   5  15
BRANCH   1  31
ATOM     31  O   UNL     1      48.387   5.979  14.232  0.00  0.00    +0.000 OA
BRANCH  31  32
ATOM     32  C   UNL     1      49.036   7.029  14.952  0.00  0.00    +0.000 C 
BRANCH  32  34
ATOM     33  C   UNL     1      48.608   5.286  16.709  0.00  0.00    +0.000 C 
ATOM     34  C   UNL     1      48.882   6.754  16.442  0.00  0.00    +0.000 C 
ENDBRANCH  32  34
ENDBRANCH  31  32
ENDBRANCH   1  31
TORSDOF 9
ENDMDL
MODEL 2
REMARK VINA RESULT:    -7.763      2.964      5.595
REMARK INTER + INTRA:         -13.326
REMARK INTER:                 -12.044
REMARK INTRA:                  -1.282
REMARK UNBOUND:                -1.479
REMARK  Name = 
REMARK  12 active torsions:
REMARK  status: ('A' for Active; 'I' for Inactive)
REMARK    1  A    between atoms: C_1  and  C_2
REMARK    2  A    between atoms: C_2  and  C_3
REMARK    3  A    between atoms: C_3  and  O_4
REMARK    4  A    between atoms: O_4  and  C_5
REMARK    5  A    between atoms: C_7  and  C_8
REMARK    6  A    between atoms: C_12  and  O_13
REMARK    7  A    between atoms: O_13  and  C_14
REMARK    8  A    between atoms: C_17  and  C_18
REMARK    9  A    between atoms: C_18  and  C_19
REMARK   10  A    between atoms: C_18  and  C_20
REMARK   11  A    between atoms: C_20  and  N_21
REMARK   12  A    between atoms: C_25  and  C_26
REMARK                            x       y       z     vdW  Elec       q    Type
REMARK                         _______ _______ _______ _____ _____    ______ ____
ROOT
ATOM      1  C   UNL     1      47.124   6.442  12.442  0.00  0.00    +0.000 A 
ATOM      2  C   UNL     1      47.718   6.036  13.631  0.00  0.00    +0.000 A 
ATOM      3  C   UNL     1      47.093   5.061  14.396  0.00  0.00    +0.000 A 
ATOM      4  N   UNL     1      45.951   4.462  13.984  0.00  0.00    +0.000 NA
ATOM      5  C   UNL     1      45.356   4.870  12.843  0.00  0.00    +0.000 A 
ATOM      6  C   UNL     1      45.921   5.863  12.051  0.00  0.00    +0.000 A 
ENDROOT
BRANCH   3   7
ATOM      7  C   UNL     1      47.586   4.632  15.717  0.00  0.00    +0.000 A 
ATOM      8  C   UNL     1      47.310   3.346  16.203  0.00  0.00    +0.000 A 
ATOM      9  C   UNL     1      47.764   2.981  17.459  0.00  0.00    +0.000 A 
ATOM     10  N   UNL     1      48.466   3.797  18.270  0.00  0.00    +0.000 NA
ATOM     11  C   UNL     1      48.714   5.037  17.804  0.00  0.00    +0.000 A 
ATOM     12  C   UNL     1      48.305   5.492  16.560  0.00  0.00    +0.000 A 
BRANCH  11  13
ATOM     13  O   UNL     1      49.410   5.940  18.585  0.00  0.00    +0.000 OA
ATOM     14  C   UNL     1      49.945   7.020  17.827  0.00  0.00    +0.000 C 
ENDBRANCH  11  13
ENDBRANCH   3   7
BRANCH   5  15
ATOM     15  C   UNL     1      44.026   4.237  12.459  0.00  0.00    +0.000 C 
ATOM     16  C   UNL     1      42.857   5.066  13.017  0.00  0.00    +0.000 C 
BRANCH  15  17
ATOM     17  C   UNL     1      43.810   4.069  10.935  0.00  0.00    +0.000 C 
BRANCH  17  18
ATOM     18  N   UNL     1      44.083   2.707  10.455  0.00  0.00    +0.000 N 
ATOM     19  C   UNL     1      44.976   2.651   9.376  0.00  0.00    +0.000 A 
ATOM     20  C   UNL     1      45.404   1.414   8.874  0.00  0.00    +0.000 A 
ATOM     21  N   UNL     1      46.247   1.265   7.814  0.00  0.00    +0.000 NA
ATOM     22  C   UNL     1      46.678   2.439   7.278  0.00  0.00    +0.000 A 
ATOM     23  C   UNL     1      46.295   3.670   7.779  0.00  0.00    +0.000 A 
ATOM     24  N   UNL     1      45.445   3.794   8.829  0.00  0.00    +0.000 NA
ATOM     25  H   UNL     1      43.248   2.164  10.267  0.00  0.00    +0.000 HD
BRANCH  22  26
ATOM     26  C   UNL     1      47.569   2.387   6.088  0.00  0.00    +0.000 C 
ATOM     27  N   UNL     1      47.342   3.332   5.126  0.00  0.00    +0.000 N 
ATOM     28  O   UNL     1      48.464   1.558   5.976  0.00  0.00    +0.000 OA
ATOM     29  H   UNL     1      46.602   4.014   5.246  0.00  0.00    +0.000 HD
ATOM     30  H   UNL     1      47.935   3.357   4.308  0.00  0.00    +0.000 HD
ENDBRANCH  22  26
ENDBRANCH  17  18
ENDBRANCH  15  17
ENDBRANCH   5  15
BRANCH   1  31
ATOM     31  O   UNL     1      47.612   7.398  11.593  0.00  0.00    +0.000 OA
BRANCH  31  32
ATOM     32  C   UNL     1      48.057   8.616  12.195  0.00  0.00    +0.000 C 
BRANCH  32  34
ATOM     33  C   UNL     1      50.333   7.870  11.437  0.00  0.00    +0.000 C 
ATOM     34  C   UNL     1      49.361   9.032  11.527  0.00  0.00    +0.000 C 
ENDBRANCH  32  34
ENDBRANCH  31  32
ENDBRANCH   1  31
TORSDOF 9
ENDMDL
MODEL 3
REMARK VINA RESULT:    -7.346      1.653      2.149
REMARK INTER + INTRA:         -12.689
REMARK INTER:                 -11.517
REMARK INTRA:                  -1.172
REMARK UNBOUND:                -1.479
REMARK  Name = 
REMARK  12 active torsions:
REMARK  status: ('A' for Active; 'I' for Inactive)
REMARK    1  A    between atoms: C_1  and  C_2
REMARK    2  A    between atoms: C_2  and  C_3
REMARK    3  A    between atoms: C_3  and  O_4
REMARK    4  A    between atoms: O_4  and  C_5
REMARK    5  A    between atoms: C_7  and  C_8
REMARK    6  A    between atoms: C_12  and  O_13
REMARK    7  A    between atoms: O_13  and  C_14
REMARK    8  A    between atoms: C_17  and  C_18
REMARK    9  A    between atoms: C_18  and  C_19
REMARK   10  A    between atoms: C_18  and  C_20
REMARK   11  A    between atoms: C_20  and  N_21
REMARK   12  A    between atoms: C_25  and  C_26
REMARK                            x       y       z     vdW  Elec       q    Type
REMARK                         _______ _______ _______ _____ _____    ______ ____
ROOT
ATOM      1  C   UNL     1      47.296   6.972  12.507  0.00  0.00    +0.000 A 
ATOM      2  C   UNL     1      46.763   8.222  12.211  0.00  0.00    +0.000 A 
ATOM      3  C   UNL     1      45.414   8.320  11.899  0.00  0.00    +0.000 A 
ATOM      4  N   UNL     1      44.599   7.240  11.931  0.00  0.00    +0.000 NA
ATOM      5  C   UNL     1      45.116   6.020  12.192  0.00  0.00    +0.000 A 
ATOM      6  C   UNL     1      46.465   5.856  12.482  0.00  0.00    +0.000 A 
ENDROOT
BRANCH   3   7
ATOM      7  C   UNL     1      44.774   9.579  11.476  0.00  0.00    +0.000 A 
ATOM      8  C   UNL     1      45.385  10.815  11.729  0.00  0.00    +0.000 A 
ATOM      9  C   UNL     1      44.746  11.981  11.343  0.00  0.00    +0.000 A 
ATOM     10  N   UNL     1      43.546  12.013  10.730  0.00  0.00    +0.000 NA
ATOM     11  C   UNL     1      42.956  10.822  10.505  0.00  0.00    +0.000 A 
ATOM     12  C   UNL     1      43.519   9.603  10.851  0.00  0.00    +0.000 A 
BRANCH  11  13
ATOM     13  O   UNL     1      41.715  10.771   9.901  0.00  0.00    +0.000 OA
ATOM     14  C   UNL     1      41.093  12.050   9.819  0.00  0.00    +0.000 C 
ENDBRANCH  11  13
ENDBRANCH   3   7
BRANCH   5  15
ATOM     15  C   UNL     1      44.186   4.817  12.127  0.00  0.00    +0.000 C 
ATOM     16  C   UNL     1      42.941   5.054  12.998  0.00  0.00    +0.000 C 
BRANCH  15  17
ATOM     17  C   UNL     1      43.709   4.450  10.700  0.00  0.00    +0.000 C 
BRANCH  17  18
ATOM     18  N   UNL     1      43.976   3.050  10.339  0.00  0.00    +0.000 N 
ATOM     19  C   UNL     1      44.895   2.898   9.291  0.00  0.00    +0.000 A 
ATOM     20  C   UNL     1      45.320   1.621   8.902  0.00  0.00    +0.000 A 
ATOM     21  N   UNL     1      46.187   1.377   7.879  0.00  0.00    +0.000 NA
ATOM     22  C   UNL     1      46.645   2.499   7.260  0.00  0.00    +0.000 A 
ATOM     23  C   UNL     1      46.264   3.771   7.650  0.00  0.00    +0.000 A 
ATOM     24  N   UNL     1      45.390   3.988   8.665  0.00  0.00    +0.000 NA
ATOM     25  H   UNL     1      43.140   2.502  10.175  0.00  0.00    +0.000 HD
BRANCH  22  26
ATOM     26  C   UNL     1      47.564   2.342   6.101  0.00  0.00    +0.000 C 
ATOM     27  N   UNL     1      47.304   3.135   5.017  0.00  0.00    +0.000 N 
ATOM     28  O   UNL     1      48.506   1.560   6.115  0.00  0.00    +0.000 OA
ATOM     29  H   UNL     1      46.525   3.781   5.034  0.00  0.00    +0.000 HD
ATOM     30  H   UNL     1      47.913   3.085   4.212  0.00  0.00    +0.000 HD
ENDBRANCH  22  26
ENDBRANCH  17  18
ENDBRANCH  15  17
ENDBRANCH   5  15
BRANCH   1  31
ATOM     31  O   UNL     1      48.604   6.716  12.818  0.00  0.00    +0.000 OA
BRANCH  31  32
ATOM     32  C   UNL     1      49.501   7.827  12.754  0.00  0.00    +0.000 C 
BRANCH  32  34
ATOM     33  C   UNL     1      51.063   9.003  11.177  0.00  0.00    +0.000 C 
ATOM     34  C   UNL     1      50.303   7.721  11.463  0.00  0.00    +0.000 C 
ENDBRANCH  32  34
ENDBRANCH  31  32
ENDBRANCH   1  31
TORSDOF 9
ENDMDL
MODEL 4
REMARK VINA RESULT:    -7.208      1.784      5.352
REMARK INTER + INTRA:         -12.479
REMARK INTER:                 -11.327
REMARK INTRA:                  -1.152
REMARK UNBOUND:                -1.479
REMARK  Name = 
REMARK  12 active torsions:
REMARK  status: ('A' for Active; 'I' for Inactive)
REMARK    1  A    between atoms: C_1  and  C_2
REMARK    2  A    between atoms: C_2  and  C_3
REMARK    3  A    between atoms: C_3  and  O_4
REMARK    4  A    between atoms: O_4  and  C_5
REMARK    5  A    between atoms: C_7  and  C_8
REMARK    6  A    between atoms: C_12  and  O_13
REMARK    7  A    between atoms: O_13  and  C_14
REMARK    8  A    between atoms: C_17  and  C_18
REMARK    9  A    between atoms: C_18  and  C_19
REMARK   10  A    between atoms: C_18  and  C_20
REMARK   11  A    between atoms: C_20  and  N_21
REMARK   12  A    between atoms: C_25  and  C_26
REMARK                            x       y       z     vdW  Elec       q    Type
REMARK                         _______ _______ _______ _____ _____    ______ ____
ROOT
ATOM      1  C   UNL     1      45.221   8.626  11.732  0.00  0.00    +0.000 A 
ATOM      2  C   UNL     1      46.427   8.570  12.421  0.00  0.00    +0.000 A 
ATOM      3  C   UNL     1      46.825   7.364  12.982  0.00  0.00    +0.000 A 
ATOM      4  N   UNL     1      46.094   6.235  12.826  0.00  0.00    +0.000 NA
ATOM      5  C   UNL     1      44.910   6.289  12.180  0.00  0.00    +0.000 A 
ATOM      6  C   UNL     1      44.446   7.475  11.623  0.00  0.00    +0.000 A 
ENDROOT
BRANCH   3   7
ATOM      7  C   UNL     1      48.033   7.221  13.815  0.00  0.00    +0.000 A 
ATOM      8  C   UNL     1      49.183   7.977  13.545  0.00  0.00    +0.000 A 
ATOM      9  C   UNL     1      50.311   7.801  14.328  0.00  0.00    +0.000 A 
ATOM     10  N   UNL     1      50.386   6.929  15.353  0.00  0.00    +0.000 NA
ATOM     11  C   UNL     1      49.283   6.194  15.596  0.00  0.00    +0.000 A 
ATOM     12  C   UNL     1      48.106   6.302  14.871  0.00  0.00    +0.000 A 
BRANCH  11  13
ATOM     13  O   UNL     1      49.287   5.262  16.616  0.00  0.00    +0.000 OA
ATOM     14  C   UNL     1      47.977   4.833  16.971  0.00  0.00    +0.000 C 
ENDBRANCH  11  13
ENDBRANCH   3   7
BRANCH   5  15
ATOM     15  C   UNL     1      44.074   5.019  12.105  0.00  0.00    +0.000 C 
ATOM     16  C   UNL     1      42.826   5.146  12.994  0.00  0.00    +0.000 C 
BRANCH  15  17
ATOM     17  C   UNL     1      43.608   4.640  10.677  0.00  0.00    +0.000 C 
BRANCH  17  18
ATOM     18  N   UNL     1      43.856   3.231  10.339  0.00  0.00    +0.000 N 
ATOM     19  C   UNL     1      44.812   3.047   9.329  0.00  0.00    +0.000 A 
ATOM     20  C   UNL     1      45.220   1.756   8.969  0.00  0.00    +0.000 A 
ATOM     21  N   UNL     1      46.122   1.482   7.983  0.00  0.00    +0.000 NA
ATOM     22  C   UNL     1      46.630   2.587   7.374  0.00  0.00    +0.000 A 
ATOM     23  C   UNL     1      46.266   3.871   7.737  0.00  0.00    +0.000 A 
ATOM     24  N   UNL     1      45.358   4.119   8.715  0.00  0.00    +0.000 NA
ATOM     25  H   UNL     1      43.014   2.702  10.146  0.00  0.00    +0.000 HD
BRANCH  22  26
ATOM     26  C   UNL     1      47.591   2.397   6.254  0.00  0.00    +0.000 C 
ATOM     27  N   UNL     1      47.451   3.248   5.193  0.00  0.00    +0.000 N 
ATOM     28  O   UNL     1      48.465   1.540   6.281  0.00  0.00    +0.000 OA
ATOM     29  H   UNL     1      46.727   3.956   5.199  0.00  0.00    +0.000 HD
ATOM     30  H   UNL     1      48.094   3.178   4.416  0.00  0.00    +0.000 HD
ENDBRANCH  22  26
ENDBRANCH  17  18
ENDBRANCH  15  17
ENDBRANCH   5  15
BRANCH   1  31
ATOM     31  O   UNL     1      44.692   9.741  11.140  0.00  0.00    +0.000 OA
BRANCH  31  32
ATOM     32  C   UNL     1      43.301   9.691  10.818  0.00  0.00    +0.000 C 
BRANCH  32  34
ATOM     33  C   UNL     1      44.343  11.193   9.096  0.00  0.00    +0.000 C 
ATOM     34  C   UNL     1      43.046  10.625   9.642  0.00  0.00    +0.000 C 
ENDBRANCH  32  34
ENDBRANCH  31  32
ENDBRANCH   1  31
TORSDOF 9
ENDMDL
MODEL 5
REMARK VINA RESULT:    -6.827      2.775      7.573
REMARK INTER + INTRA:         -11.898
REMARK INTER:                 -10.353
REMARK INTRA:                  -1.545
REMARK UNBOUND:                -1.479
REMARK  Name = 
REMARK  12 active torsions:
REMARK  status: ('A' for Active; 'I' for Inactive)
REMARK    1  A    between atoms: C_1  and  C_2
REMARK    2  A    between atoms: C_2  and  C_3
REMARK    3  A    between atoms: C_3  and  O_4
REMARK    4  A    between atoms: O_4  and  C_5
REMARK    5  A    between atoms: C_7  and  C_8
REMARK    6  A    between atoms: C_12  and  O_13
REMARK    7  A    between atoms: O_13  and  C_14
REMARK    8  A    between atoms: C_17  and  C_18
REMARK    9  A    between atoms: C_18  and  C_19
REMARK   10  A    between atoms: C_18  and  C_20
REMARK   11  A    between atoms: C_20  and  N_21
REMARK   12  A    between atoms: C_25  and  C_26
REMARK                            x       y       z     vdW  Elec       q    Type
REMARK                         _______ _______ _______ _____ _____    ______ ____
ROOT
ATOM      1  C   UNL     1      44.931   9.444  11.947  0.00  0.00    +0.000 A 
ATOM      2  C   UNL     1      44.333   8.199  11.790  0.00  0.00    +0.000 A 
ATOM      3  C   UNL     1      45.140   7.077  11.661  0.00  0.00    +0.000 A 
ATOM      4  N   UNL     1      46.489   7.162  11.739  0.00  0.00    +0.000 NA
ATOM      5  C   UNL     1      47.076   8.372  11.865  0.00  0.00    +0.000 A 
ATOM      6  C   UNL     1      46.319   9.533  11.969  0.00  0.00    +0.000 A 
ENDROOT
BRANCH   3   7
ATOM      7  C   UNL     1      44.610   5.728  11.393  0.00  0.00    +0.000 A 
ATOM      8  C   UNL     1      43.667   5.144  12.251  0.00  0.00    +0.000 A 
ATOM      9  C   UNL     1      43.208   3.865  11.987  0.00  0.00    +0.000 A 
ATOM     10  N   UNL     1      43.618   3.121  10.940  0.00  0.00    +0.000 NA
ATOM     11  C   UNL     1      44.536   3.681  10.129  0.00  0.00    +0.000 A 
ATOM     12  C   UNL     1      45.052   4.955  10.309  0.00  0.00    +0.000 A 
BRANCH  11  13
ATOM     13  O   UNL     1      45.022   2.974   9.047  0.00  0.00    +0.000 OA
ATOM     14  C   UNL     1      45.366   3.817   7.952  0.00  0.00    +0.000 C 
ENDBRANCH  11  13
ENDBRANCH   3   7
BRANCH   5  15
ATOM     15  C   UNL     1      48.597   8.436  11.856  0.00  0.00    +0.000 C 
ATOM     16  C   UNL     1      49.086   9.648  12.667  0.00  0.00    +0.000 C 
BRANCH  15  17
ATOM     17  C   UNL     1      49.297   7.172  12.415  0.00  0.00    +0.000 C 
BRANCH  17  18
ATOM     18  N   UNL     1      49.789   7.340  13.790  0.00  0.00    +0.000 N 
ATOM     19  C   UNL     1      49.149   6.518  14.728  0.00  0.00    +0.000 A 
ATOM     20  C   UNL     1      49.577   6.499  16.062  0.00  0.00    +0.000 A 
ATOM     21  N   UNL     1      48.998   5.754  17.046  0.00  0.00    +0.000 NA
ATOM     22  C   UNL     1      47.958   4.987  16.621  0.00  0.00    +0.000 A 
ATOM     23  C   UNL     1      47.541   4.965  15.302  0.00  0.00    +0.000 A 
ATOM     24  N   UNL     1      48.126   5.724  14.342  0.00  0.00    +0.000 NA
ATOM     25  H   UNL     1      49.812   8.304  14.102  0.00  0.00    +0.000 HD
BRANCH  22  26
ATOM     26  C   UNL     1      47.229   4.167  17.625  0.00  0.00    +0.000 C 
ATOM     27  N   UNL     1      47.258   4.629  18.912  0.00  0.00    +0.000 N 
ATOM     28  O   UNL     1      46.626   3.146  17.321  0.00  0.00    +0.000 OA
ATOM     29  H   UNL     1      47.755   5.483  19.136  0.00  0.00    +0.000 HD
ATOM     30  H   UNL     1      46.757   4.123  19.629  0.00  0.00    +0.000 HD
ENDBRANCH  22  26
ENDBRANCH  17  18
ENDBRANCH  15  17
ENDBRANCH   5  15
BRANCH   1  31
ATOM     31  O   UNL     1      44.270  10.636  12.071  0.00  0.00    +0.000 OA
BRANCH  31  32
ATOM     32  C   UNL     1      43.104  10.804  11.262  0.00  0.00    +0.000 C 
BRANCH  32  34
ATOM     33  C   UNL     1      43.438  10.926   8.776  0.00  0.00    +0.000 C 
ATOM     34  C   UNL     1      43.465  11.697  10.082  0.00  0.00    +0.000 C 
ENDBRANCH  32  34
ENDBRANCH  31  32
ENDBRANCH   1  31
TORSDOF 9
ENDMDL
MODEL 6
REMARK VINA RESULT:    -6.740      2.178      5.270
REMARK INTER + INTRA:         -11.765
REMARK INTER:                 -10.718
REMARK INTRA:                  -1.047
REMARK UNBOUND:                -1.479
REMARK  Name = 
REMARK  12 active torsions:
REMARK  status: ('A' for Active; 'I' for Inactive)
REMARK    1  A    between atoms: C_1  and  C_2
REMARK    2  A    between atoms: C_2  and  C_3
REMARK    3  A    between atoms: C_3  and  O_4
REMARK    4  A    between atoms: O_4  and  C_5
REMARK    5  A    between atoms: C_7  and  C_8
REMARK    6  A    between atoms: C_12  and  O_13
REMARK    7  A    between atoms: O_13  and  C_14
REMARK    8  A    between atoms: C_17  and  C_18
REMARK    9  A    between atoms: C_18  and  C_19
REMARK   10  A    between atoms: C_18  and  C_20
REMARK   11  A    between atoms: C_20  and  N_21
REMARK   12  A    between atoms: C_25  and  C_26
REMARK                            x       y       z     vdW  Elec       q    Type
REMARK                         _______ _______ _______ _____ _____    ______ ____
ROOT
ATOM      1  C   UNL     1      44.977   9.137  11.729  0.00  0.00    +0.000 A 
ATOM      2  C   UNL     1      46.300   9.186  12.154  0.00  0.00    +0.000 A 
ATOM      3  C   UNL     1      46.931   8.005  12.521  0.00  0.00    +0.000 A 
ATOM      4  N   UNL     1      46.308   6.808  12.421  0.00  0.00    +0.000 NA
ATOM      5  C   UNL     1      45.015   6.757  12.032  0.00  0.00    +0.000 A 
ATOM      6  C   UNL     1      44.323   7.910  11.682  0.00  0.00    +0.000 A 
ENDROOT
BRANCH   3   7
ATOM      7  C   UNL     1      48.295   7.959  13.079  0.00  0.00    +0.000 A 
ATOM      8  C   UNL     1      48.539   7.376  14.330  0.00  0.00    +0.000 A 
ATOM      9  C   UNL     1      49.826   7.371  14.840  0.00  0.00    +0.000 A 
ATOM     10  N   UNL     1      50.887   7.906  14.203  0.00  0.00    +0.000 NA
ATOM     11  C   UNL     1      50.643   8.480  13.009  0.00  0.00    +0.000 A 
ATOM     12  C   UNL     1      49.391   8.529  12.416  0.00  0.00    +0.000 A 
BRANCH  11  13
ATOM     13  O   UNL     1      51.675   9.069  12.304  0.00  0.00    +0.000 OA
ATOM     14  C   UNL     1      52.931   8.445  12.548  0.00  0.00    +0.000 C 
ENDBRANCH  11  13
ENDBRANCH   3   7
BRANCH   5  15
ATOM     15  C   UNL     1      44.321   5.403  12.021  0.00  0.00    +0.000 C 
ATOM     16  C   UNL     1      43.182   5.376  13.054  0.00  0.00    +0.000 C 
BRANCH  15  17
ATOM     17  C   UNL     1      43.732   4.995  10.648  0.00  0.00    +0.000 C 
BRANCH  17  18
ATOM     18  N   UNL     1      43.887   3.564  10.350  0.00  0.00    +0.000 N 
ATOM     19  C   UNL     1      44.830   3.289   9.350  0.00  0.00    +0.000 A 
ATOM     20  C   UNL     1      45.154   1.965   9.026  0.00  0.00    +0.000 A 
ATOM     21  N   UNL     1      46.037   1.605   8.052  0.00  0.00    +0.000 NA
ATOM     22  C   UNL     1      46.618   2.656   7.414  0.00  0.00    +0.000 A 
ATOM     23  C   UNL     1      46.338   3.971   7.740  0.00  0.00    +0.000 A 
ATOM     24  N   UNL     1      45.447   4.305   8.707  0.00  0.00    +0.000 NA
ATOM     25  H   UNL     1      43.012   3.085  10.169  0.00  0.00    +0.000 HD
BRANCH  22  26
ATOM     26  C   UNL     1      47.566   2.373   6.303  0.00  0.00    +0.000 C 
ATOM     27  N   UNL     1      47.389   3.104   5.161  0.00  0.00    +0.000 N 
ATOM     28  O   UNL     1      48.462   1.544   6.404  0.00  0.00    +0.000 OA
ATOM     29  H   UNL     1      46.647   3.792   5.106  0.00  0.00    +0.000 HD
ATOM     30  H   UNL     1      48.021   2.968   4.385  0.00  0.00    +0.000 HD
ENDBRANCH  22  26
ENDBRANCH  17  18
ENDBRANCH  15  17
ENDBRANCH   5  15
BRANCH   1  31
ATOM     31  O   UNL     1      44.222  10.214  11.351  0.00  0.00    +0.000 OA
BRANCH  31  32
ATOM     32  C   UNL     1      43.150   9.951  10.442  0.00  0.00    +0.000 C 
BRANCH  32  34
ATOM     33  C   UNL     1      43.477  10.809   8.104  0.00  0.00    +0.000 C 
ATOM     34  C   UNL     1      43.011  11.146   9.508  0.00  0.00    +0.000 C 
ENDBRANCH  32  34
ENDBRANCH  31  32
ENDBRANCH   1  31
TORSDOF 9
ENDMDL
MODEL 7
REMARK VINA RESULT:    -6.472      2.515      6.595
REMARK INTER + INTRA:         -11.356
REMARK INTER:                  -9.935
REMARK INTRA:                  -1.421
REMARK UNBOUND:                -1.479
REMARK  Name = 
REMARK  12 active torsions:
REMARK  status: ('A' for Active; 'I' for Inactive)
REMARK    1  A    between atoms: C_1  and  C_2
REMARK    2  A    between atoms: C_2  and  C_3
REMARK    3  A    between atoms: C_3  and  O_4
REMARK    4  A    between atoms: O_4  and  C_5
REMARK    5  A    between atoms: C_7  and  C_8
REMARK    6  A    between atoms: C_12  and  O_13
REMARK    7  A    between atoms: O_13  and  C_14
REMARK    8  A    between atoms: C_17  and  C_18
REMARK    9  A    between atoms: C_18  and  C_19
REMARK   10  A    between atoms: C_18  and  C_20
REMARK   11  A    between atoms: C_20  and  N_21
REMARK   12  A    between atoms: C_25  and  C_26
REMARK                            x       y       z     vdW  Elec       q    Type
REMARK                         _______ _______ _______ _____ _____    ______ ____
ROOT
ATOM      1  C   UNL     1      47.810   5.304  14.849  0.00  0.00    +0.000 A 
ATOM      2  C   UNL     1      46.720   4.922  14.076  0.00  0.00    +0.000 A 
ATOM      3  C   UNL     1      46.344   5.720  13.003  0.00  0.00    +0.000 A 
ATOM      4  N   UNL     1      47.047   6.826  12.664  0.00  0.00    +0.000 NA
ATOM      5  C   UNL     1      48.090   7.216  13.426  0.00  0.00    +0.000 A 
ATOM      6  C   UNL     1      48.494   6.473  14.529  0.00  0.00    +0.000 A 
ENDROOT
BRANCH   3   7
ATOM      7  C   UNL     1      45.147   5.458  12.183  0.00  0.00    +0.000 A 
ATOM      8  C   UNL     1      43.865   5.733  12.678  0.00  0.00    +0.000 A 
ATOM      9  C   UNL     1      42.759   5.452  11.895  0.00  0.00    +0.000 A 
ATOM     10  N   UNL     1      42.829   4.914  10.661  0.00  0.00    +0.000 NA
ATOM     11  C   UNL     1      44.064   4.636  10.198  0.00  0.00    +0.000 A 
ATOM     12  C   UNL     1      45.230   4.885  10.906  0.00  0.00    +0.000 A 
BRANCH  11  13
ATOM     13  O   UNL     1      44.219   4.063   8.951  0.00  0.00    +0.000 OA
ATOM     14  C   UNL     1      44.682   2.718   9.019  0.00  0.00    +0.000 C 
ENDBRANCH  11  13
ENDBRANCH   3   7
BRANCH   5  15
ATOM     15  C   UNL     1      48.797   8.514  13.066  0.00  0.00    +0.000 C 
ATOM     16  C   UNL     1      49.183   8.520  11.577  0.00  0.00    +0.000 C 
BRANCH  15  17
ATOM     17  C   UNL     1      47.974   9.795  13.353  0.00  0.00    +0.000 C 
BRANCH  17  18
ATOM     18  N   UNL     1      47.686  10.584  12.146  0.00  0.00    +0.000 N 
ATOM     19  C   UNL     1      46.345  10.534  11.741  0.00  0.00    +0.000 A 
ATOM     20  C   UNL     1      45.902  11.312  10.662  0.00  0.00    +0.000 A 
ATOM     21  N   UNL     1      44.626  11.307  10.183  0.00  0.00    +0.000 NA
ATOM     22  C   UNL     1      43.781  10.487  10.864  0.00  0.00    +0.000 A 
ATOM     23  C   UNL     1      44.189   9.736  11.952  0.00  0.00    +0.000 A 
ATOM     24  N   UNL     1      45.468   9.749  12.404  0.00  0.00    +0.000 NA
ATOM     25  H   UNL     1      48.310  10.390  11.372  0.00  0.00    +0.000 HD
BRANCH  22  26
ATOM     26  C   UNL     1      42.374  10.375  10.395  0.00  0.00    +0.000 C 
ATOM     27  N   UNL     1      41.597   9.454  11.041  0.00  0.00    +0.000 N 
ATOM     28  O   UNL     1      41.928  11.073   9.492  0.00  0.00    +0.000 OA
ATOM     29  H   UNL     1      41.985   8.896  11.792  0.00  0.00    +0.000 HD
ATOM     30  H   UNL     1      40.626   9.355  10.777  0.00  0.00    +0.000 HD
ENDBRANCH  22  26
ENDBRANCH  17  18
ENDBRANCH  15  17
ENDBRANCH   5  15
BRANCH   1  31
ATOM     31  O   UNL     1      48.288   4.631  15.941  0.00  0.00    +0.000 OA
BRANCH  31  32
ATOM     32  C   UNL     1      47.335   4.307  16.955  0.00  0.00    +0.000 C 
BRANCH  32  34
ATOM     33  C   UNL     1      49.311   2.814  17.376  0.00  0.00    +0.000 C 
ATOM     34  C   UNL     1      47.960   3.277  17.888  0.00  0.00    +0.000 C 
ENDBRANCH  32  34
ENDBRANCH  31  32
ENDBRANCH   1  31
TORSDOF 9
ENDMDL
MODEL 8
REMARK VINA RESULT:    -6.402      3.395      8.332
REMARK INTER + INTRA:         -11.248
REMARK INTER:                 -10.003
REMARK INTRA:                  -1.245
REMARK UNBOUND:                -1.479
REMARK  Name = 
REMARK  12 active torsions:
REMARK  status: ('A' for Active; 'I' for Inactive)
REMARK    1  A    between atoms: C_1  and  C_2
REMARK    2  A    between atoms: C_2  and  C_3
REMARK    3  A    between atoms: C_3  and  O_4
REMARK    4  A    between atoms: O_4  and  C_5
REMARK    5  A    between atoms: C_7  and  C_8
REMARK    6  A    between atoms: C_12  and  O_13
REMARK    7  A    between atoms: O_13  and  C_14
REMARK    8  A    between atoms: C_17  and  C_18
REMARK    9  A    between atoms: C_18  and  C_19
REMARK   10  A    between atoms: C_18  and  C_20
REMARK   11  A    between atoms: C_20  and  N_21
REMARK   12  A    between atoms: C_25  and  C_26
REMARK                            x       y       z     vdW  Elec       q    Type
REMARK                         _______ _______ _______ _____ _____    ______ ____
ROOT
ATOM      1  C   UNL     1      45.341   8.741  11.985  0.00  0.00    +0.000 A 
ATOM      2  C   UNL     1      44.728   7.591  11.500  0.00  0.00    +0.000 A 
ATOM      3  C   UNL     1      45.427   6.391  11.538  0.00  0.00    +0.000 A 
ATOM      4  N   UNL     1      46.663   6.309  12.083  0.00  0.00    +0.000 NA
ATOM      5  C   UNL     1      47.273   7.427  12.532  0.00  0.00    +0.000 A 
ATOM      6  C   UNL     1      46.633   8.661  12.492  0.00  0.00    +0.000 A 
ENDROOT
BRANCH   3   7
ATOM      7  C   UNL     1      44.909   5.138  10.961  0.00  0.00    +0.000 A 
ATOM      8  C   UNL     1      44.172   4.238  11.745  0.00  0.00    +0.000 A 
ATOM      9  C   UNL     1      43.722   3.056  11.182  0.00  0.00    +0.000 A 
ATOM     10  N   UNL     1      43.952   2.698   9.904  0.00  0.00    +0.000 NA
ATOM     11  C   UNL     1      44.675   3.559   9.160  0.00  0.00    +0.000 A 
ATOM     12  C   UNL     1      45.165   4.766   9.633  0.00  0.00    +0.000 A 
BRANCH  11  13
ATOM     13  O   UNL     1      44.972   3.253   7.846  0.00  0.00    +0.000 OA
ATOM     14  C   UNL     1      46.297   3.627   7.483  0.00  0.00    +0.000 C 
ENDBRANCH  11  13
ENDBRANCH   3   7
BRANCH   5  15
ATOM     15  C   UNL     1      48.697   7.309  13.053  0.00  0.00    +0.000 C 
ATOM     16  C   UNL     1      49.519   8.545  12.650  0.00  0.00    +0.000 C 
BRANCH  15  17
ATOM     17  C   UNL     1      48.808   7.140  14.589  0.00  0.00    +0.000 C 
BRANCH  17  18
ATOM     18  N   UNL     1      48.048   5.992  15.104  0.00  0.00    +0.000 N 
ATOM     19  C   UNL     1      48.335   5.672  16.439  0.00  0.00    +0.000 A 
ATOM     20  C   UNL     1      47.619   4.661  17.094  0.00  0.00    +0.000 A 
ATOM     21  N   UNL     1      47.848   4.265  18.378  0.00  0.00    +0.000 NA
ATOM     22  C   UNL     1      48.834   4.961  19.006  0.00  0.00    +0.000 A 
ATOM     23  C   UNL     1      49.530   5.985  18.388  0.00  0.00    +0.000 A 
ATOM     24  N   UNL     1      49.293   6.354  17.105  0.00  0.00    +0.000 NA
ATOM     25  H   UNL     1      48.096   5.170  14.512  0.00  0.00    +0.000 HD
BRANCH  22  26
ATOM     26  C   UNL     1      49.193   4.579  20.398  0.00  0.00    +0.000 C 
ATOM     27  N   UNL     1      50.526   4.595  20.700  0.00  0.00    +0.000 N 
ATOM     28  O   UNL     1      48.347   4.278  21.231  0.00  0.00    +0.000 OA
ATOM     29  H   UNL     1      51.206   4.858  19.996  0.00  0.00    +0.000 HD
ATOM     30  H   UNL     1      50.822   4.368  21.640  0.00  0.00    +0.000 HD
ENDBRANCH  22  26
ENDBRANCH  17  18
ENDBRANCH  15  17
ENDBRANCH   5  15
BRANCH   1  31
ATOM     31  O   UNL     1      44.786   9.992  12.001  0.00  0.00    +0.000 OA
BRANCH  31  32
ATOM     32  C   UNL     1      44.470  10.564  10.730  0.00  0.00    +0.000 C 
BRANCH  32  34
ATOM     33  C   UNL     1      45.322  12.721  11.695  0.00  0.00    +0.000 C 
ATOM     34  C   UNL     1      45.371  11.773  10.512  0.00  0.00    +0.000 C 
ENDBRANCH  32  34
ENDBRANCH  31  32
ENDBRANCH   1  31
TORSDOF 9
ENDMDL
MODEL 9
REMARK VINA RESULT:    -6.199      3.424      7.440
REMARK INTER + INTRA:         -10.940
REMARK INTER:                  -9.493
REMARK INTRA:                  -1.447
REMARK UNBOUND:                -1.479
REMARK  Name = 
REMARK  12 active torsions:
REMARK  status: ('A' for Active; 'I' for Inactive)
REMARK    1  A    between atoms: C_1  and  C_2
REMARK    2  A    between atoms: C_2  and  C_3
REMARK    3  A    between atoms: C_3  and  O_4
REMARK    4  A    between atoms: O_4  and  C_5
REMARK    5  A    between atoms: C_7  and  C_8
REMARK    6  A    between atoms: C_12  and  O_13
REMARK    7  A    between atoms: O_13  and  C_14
REMARK    8  A    between atoms: C_17  and  C_18
REMARK    9  A    between atoms: C_18  and  C_19
REMARK   10  A    between atoms: C_18  and  C_20
REMARK   11  A    between atoms: C_20  and  N_21
REMARK   12  A    between atoms: C_25  and  C_26
REMARK                            x       y       z     vdW  Elec       q    Type
REMARK                         _______ _______ _______ _____ _____    ______ ____
ROOT
ATOM      1  C   UNL     1      48.333   8.781  17.667  0.00  0.00    +0.000 A 
ATOM      2  C   UNL     1      48.609   7.438  17.893  0.00  0.00    +0.000 A 
ATOM      3  C   UNL     1      48.794   6.597  16.804  0.00  0.00    +0.000 A 
ATOM      4  N   UNL     1      48.766   7.067  15.534  0.00  0.00    +0.000 NA
ATOM      5  C   UNL     1      48.473   8.366  15.308  0.00  0.00    +0.000 A 
ATOM      6  C   UNL     1      48.249   9.247  16.359  0.00  0.00    +0.000 A 
ENDROOT
BRANCH   3   7
ATOM      7  C   UNL     1      48.993   5.142  16.931  0.00  0.00    +0.000 A 
ATOM      8  C   UNL     1      47.922   4.254  16.760  0.00  0.00    +0.000 A 
ATOM      9  C   UNL     1      48.133   2.895  16.913  0.00  0.00    +0.000 A 
ATOM     10  N   UNL     1      49.326   2.352  17.227  0.00  0.00    +0.000 NA
ATOM     11  C   UNL     1      50.348   3.211  17.407  0.00  0.00    +0.000 A 
ATOM     12  C   UNL     1      50.235   4.586  17.272  0.00  0.00    +0.000 A 
BRANCH  11  13
ATOM     13  O   UNL     1      51.598   2.734  17.752  0.00  0.00    +0.000 OA
ATOM     14  C   UNL     1      51.710   1.325  17.587  0.00  0.00    +0.000 C 
ENDBRANCH  11  13
ENDBRANCH   3   7
BRANCH   5  15
ATOM     15  C   UNL     1      48.359   8.836  13.865  0.00  0.00    +0.000 C 
ATOM     16  C   UNL     1      49.563   8.343  13.044  0.00  0.00    +0.000 C 
BRANCH  15  17
ATOM     17  C   UNL     1      47.068   8.380  13.141  0.00  0.00    +0.000 C 
BRANCH  17  18
ATOM     18  N   UNL     1      46.528   7.113  13.655  0.00  0.00    +0.000 N 
ATOM     19  C   UNL     1      46.051   6.251  12.658  0.00  0.00    +0.000 A 
ATOM     20  C   UNL     1      45.595   4.968  12.990  0.00  0.00    +0.000 A 
ATOM     21  N   UNL     1      45.091   4.075  12.092  0.00  0.00    +0.000 NA
ATOM     22  C   UNL     1      45.086   4.523  10.807  0.00  0.00    +0.000 A 
ATOM     23  C   UNL     1      45.562   5.772  10.453  0.00  0.00    +0.000 A 
ATOM     24  N   UNL     1      46.049   6.649  11.367  0.00  0.00    +0.000 NA
ATOM     25  H   UNL     1      45.846   7.229  14.396  0.00  0.00    +0.000 HD
BRANCH  22  26
ATOM     26  C   UNL     1      44.515   3.641   9.754  0.00  0.00    +0.000 C 
ATOM     27  N   UNL     1      44.114   4.261   8.604  0.00  0.00    +0.000 N 
ATOM     28  O   UNL     1      44.419   2.428   9.898  0.00  0.00    +0.000 OA
ATOM     29  H   UNL     1      44.214   5.265   8.504  0.00  0.00    +0.000 HD
ATOM     30  H   UNL     1      43.742   3.705   7.847  0.00  0.00    +0.000 HD
ENDBRANCH  22  26
ENDBRANCH  17  18
ENDBRANCH  15  17
ENDBRANCH   5  15
BRANCH   1  31
ATOM     31  O   UNL     1      48.114   9.724  18.636  0.00  0.00    +0.000 OA
BRANCH  31  32
ATOM     32  C   UNL     1      48.334   9.311  19.986  0.00  0.00    +0.000 C 
BRANCH  32  34
ATOM     33  C   UNL     1      46.297  10.597  20.695  0.00  0.00    +0.000 C 
ATOM     34  C   UNL     1      46.987   9.246  20.693  0.00  0.00    +0.000 C 
ENDBRANCH  32  34
ENDBRANCH  31  32
ENDBRANCH   1  31
TORSDOF 9
ENDMDL
