MODEL 1
REMARK VINA RESULT:    -8.306      0.000      0.000
REMARK INTER + INTRA:         -13.215
REMARK INTER:                 -11.704
REMARK INTRA:                  -1.511
REMARK UNBOUND:                -1.511
REMARK  Name = 
REMARK  8 active torsions:
REMARK  status: ('A' for Active; 'I' for Inactive)
REMARK    1  A    between atoms: C_1  and  N_2
REMARK    2  A    between atoms: C_4  and  C_5
REMARK    3  A    between atoms: N_7  and  C_8
REMARK    4  A    between atoms: C_8  and  C_9
REMARK    5  A    between atoms: C_12  and  C_13
REMARK    6  A    between atoms: C_13  and  C_14
REMARK    7  A    between atoms: C_14  and  O_15
REMARK    8  A    between atoms: O_15  and  C_16
REMARK                            x       y       z     vdW  Elec       q    Type
REMARK                         _______ _______ _______ _____ _____    ______ ____
ROOT
ATOM      1  C   UNL     1      47.103   8.085  13.106  0.00  0.00    +0.000 C 
ENDROOT
BRANCH   1   2
ATOM      2  C   UNL     1      46.242   7.097  12.373  0.00  0.00    +0.000 A 
ATOM      3  C   UNL     1      46.658   6.589  11.139  0.00  0.00    +0.000 A 
ATOM      4  C   UNL     1      45.873   5.660  10.454  0.00  0.00    +0.000 A 
ATOM      5  C   UNL     1      44.648   5.221  10.977  0.00  0.00    +0.000 A 
ATOM      6  C   UNL     1      44.227   5.746  12.207  0.00  0.00    +0.000 A 
ATOM      7  C   UNL     1      45.012   6.678  12.895  0.00  0.00    +0.000 A 
BRANCH   5   8
ATOM      8  C   UNL     1      43.766   4.203  10.280  0.00  0.00    +0.000 C 
BRANCH   8   9
ATOM      9  C   UNL     1      44.377   2.808  10.154  0.00  0.00    +0.000 C 
BRANCH   9  10
ATOM     10  O   UNL     1      44.239   2.318   8.817  0.00  0.00    +0.000 OA
BRANCH  10  11
ATOM     11  C   UNL     1      45.394   2.373   8.078  0.00  0.00    +0.000 A 
ATOM     12  C   UNL     1      45.829   3.486   7.352  0.00  0.00    +0.000 A 
ATOM     13  C   UNL     1      47.031   3.437   6.639  0.00  0.00    +0.000 A 
ATOM     14  C   UNL     1      47.806   2.280   6.655  0.00  0.00    +0.000 A 
ATOM     15  C   UNL     1      47.383   1.174   7.389  0.00  0.00    +0.000 A 
ATOM     16  C   UNL     1      46.184   1.223   8.104  0.00  0.00    +0.000 A 
ENDBRANCH  10  11
ENDBRANCH   9  10
ENDBRANCH   8   9
ENDBRANCH   5   8
ENDBRANCH   1   2
BRANCH   1  19
ATOM     17  C   UNL     1      48.683   7.007  14.616  0.00  0.00    +0.000 C 
ATOM     18  O   UNL     1      49.525   6.941  13.731  0.00  0.00    +0.000 OA
ATOM     19  N   UNL     1      47.460   7.610  14.420  0.00  0.00    +0.000 N 
ATOM     20  H   UNL     1      46.749   7.557  15.134  0.00  0.00    +0.000 HD
BRANCH  17  24
ATOM     21  C   UNL     1      50.464   6.470  19.240  0.00  0.00    +0.000 C 
ATOM     22  N   UNL     1      49.723   6.234  18.023  0.00  0.00    +0.000 N 
ATOM     23  C   UNL     1      49.701   7.053  16.928  0.00  0.00    +0.000 A 
ATOM     24  C   UNL     1      48.902   6.462  15.953  0.00  0.00    +0.000 A 
ATOM     25  C   UNL     1      48.407   5.231  16.515  0.00  0.00    +0.000 A 
ATOM     26  C   UNL     1      47.577   4.165  16.174  0.00  0.00    +0.000 A 
ATOM     27 CL   UNL     1      46.740   4.131  14.701  0.00  0.00    +0.000 Cl
ATOM     28  N   UNL     1      47.330   3.146  17.016  0.00  0.00    +0.000 NA
ATOM     29  C   UNL     1      47.930   3.190  18.212  0.00  0.00    +0.000 A 
ATOM     30  N   UNL     1      48.746   4.143  18.685  0.00  0.00    +0.000 NA
ATOM     31  C   UNL     1      48.943   5.133  17.796  0.00  0.00    +0.000 A 
ENDBRANCH  17  24
ENDBRANCH   1  19
TORSDOF 7
ENDMDL
MODEL 2
REMARK VINA RESULT:    -7.793      1.771      2.245
REMARK INTER + INTRA:         -12.494
REMARK INTER:                 -11.279
REMARK INTRA:                  -1.215
REMARK UNBOUND:                -1.511
REMARK  Name = 
REMARK  8 active torsions:
REMARK  status: ('A' for Active; 'I' for Inactive)
REMARK    1  A    between atoms: C_1  and  N_2
REMARK    2  A    between atoms: C_4  and  C_5
REMARK    3  A    between atoms: N_7  and  C_8
REMARK    4  A    between atoms: C_8  and  C_9
REMARK    5  A    between atoms: C_12  and  C_13
REMARK    6  A    between atoms: C_13  and  C_14
REMARK    7  A    between atoms: C_14  and  O_15
REMARK    8  A    between atoms: O_15  and  C_16
REMARK                            x       y       z     vdW  Elec       q    Type
REMARK                         _______ _______ _______ _____ _____    ______ ____
ROOT
ATOM      1  C   UNL     1      48.185   7.159  13.293  0.00  0.00    +0.000 C 
ENDROOT
BRANCH   1   2
ATOM      2  C   UNL     1      47.174   6.159  12.808  0.00  0.00    +0.000 A 
ATOM      3  C   UNL     1      46.934   4.996  13.546  0.00  0.00    +0.000 A 
ATOM      4  C   UNL     1      45.988   4.065  13.114  0.00  0.00    +0.000 A 
ATOM      5  C   UNL     1      45.264   4.265  11.929  0.00  0.00    +0.000 A 
ATOM      6  C   UNL     1      45.521   5.425  11.184  0.00  0.00    +0.000 A 
ATOM      7  C   UNL     1      46.469   6.359  11.616  0.00  0.00    +0.000 A 
BRANCH   5   8
ATOM      8  C   UNL     1      44.216   3.292  11.424  0.00  0.00    +0.000 C 
BRANCH   8   9
ATOM      9  C   UNL     1      44.087   3.225   9.902  0.00  0.00    +0.000 C 
BRANCH   9  10
ATOM     10  O   UNL     1      44.599   1.984   9.409  0.00  0.00    +0.000 OA
BRANCH  10  11
ATOM     11  C   UNL     1      45.597   2.121   8.477  0.00  0.00    +0.000 A 
ATOM     12  C   UNL     1      46.422   1.086   8.027  0.00  0.00    +0.000 A 
ATOM     13  C   UNL     1      47.403   1.334   7.064  0.00  0.00    +0.000 A 
ATOM     14  C   UNL     1      47.562   2.615   6.541  0.00  0.00    +0.000 A 
ATOM     15  C   UNL     1      46.733   3.647   6.977  0.00  0.00    +0.000 A 
ATOM     16  C   UNL     1      45.748   3.399   7.936  0.00  0.00    +0.000 A 
ENDBRANCH  10  11
ENDBRANCH   9  10
ENDBRANCH   8   9
ENDBRANCH   5   8
ENDBRANCH   1   2
BRANCH   1  19
ATOM     17  C   UNL     1      48.982   7.138  15.596  0.00  0.00    +0.000 C 
ATOM     18  O   UNL     1      50.055   6.668  15.249  0.00  0.00    +0.000 OA
ATOM     19  N   UNL     1      47.999   7.470  14.689  0.00  0.00    +0.000 N 
ATOM     20  H   UNL     1      47.087   7.758  15.012  0.00  0.00    +0.000 HD
BRANCH  17  24
ATOM     21  C   UNL     1      47.929   9.594  19.803  0.00  0.00    +0.000 C 
ATOM     22  N   UNL     1      48.189   8.518  18.876  0.00  0.00    +0.000 N 
ATOM     23  C   UNL     1      48.399   8.654  17.531  0.00  0.00    +0.000 A 
ATOM     24  C   UNL     1      48.650   7.394  16.995  0.00  0.00    +0.000 A 
ATOM     25  C   UNL     1      48.562   6.457  18.086  0.00  0.00    +0.000 A 
ATOM     26  C   UNL     1      48.661   5.087  18.320  0.00  0.00    +0.000 A 
ATOM     27 CL   UNL     1      48.903   3.987  17.054  0.00  0.00    +0.000 Cl
ATOM     28  N   UNL     1      48.495   4.551  19.543  0.00  0.00    +0.000 NA
ATOM     29  C   UNL     1      48.236   5.399  20.545  0.00  0.00    +0.000 A 
ATOM     30  N   UNL     1      48.106   6.732  20.478  0.00  0.00    +0.000 NA
ATOM     31  C   UNL     1      48.276   7.199  19.228  0.00  0.00    +0.000 A 
ENDBRANCH  17  24
ENDBRANCH   1  19
TORSDOF 7
ENDMDL
MODEL 3
REMARK VINA RESULT:    -7.771      2.174      2.936
REMARK INTER + INTRA:         -12.461
REMARK INTER:                 -11.458
REMARK INTRA:                  -1.003
REMARK UNBOUND:                -1.511
REMARK  Name = 
REMARK  8 active torsions:
REMARK  status: ('A' for Active; 'I' for Inactive)
REMARK    1  A    between atoms: C_1  and  N_2
REMARK    2  A    between atoms: C_4  and  C_5
REMARK    3  A    between atoms: N_7  and  C_8
REMARK    4  A    between atoms: C_8  and  C_9
REMARK    5  A    between atoms: C_12  and  C_13
REMARK    6  A    between atoms: C_13  and  C_14
REMARK    7  A    between atoms: C_14  and  O_15
REMARK    8  A    between atoms: O_15  and  C_16
REMARK                            x       y       z     vdW  Elec       q    Type
REMARK                         _______ _______ _______ _____ _____    ______ ____
ROOT
ATOM      1  C   UNL     1      48.221   6.706  13.823  0.00  0.00    +0.000 C 
ENDROOT
BRANCH   1   2
ATOM      2  C   UNL     1      47.128   5.948  13.125  0.00  0.00    +0.000 A 
ATOM      3  C   UNL     1      46.656   4.749  13.667  0.00  0.00    +0.000 A 
ATOM      4  C   UNL     1      45.631   4.042  13.035  0.00  0.00    +0.000 A 
ATOM      5  C   UNL     1      45.057   4.508  11.843  0.00  0.00    +0.000 A 
ATOM      6  C   UNL     1      45.546   5.702  11.296  0.00  0.00    +0.000 A 
ATOM      7  C   UNL     1      46.574   6.412  11.927  0.00  0.00    +0.000 A 
BRANCH   5   8
ATOM      8  C   UNL     1      43.933   3.785  11.127  0.00  0.00    +0.000 C 
BRANCH   8   9
ATOM      9  C   UNL     1      44.212   3.465   9.658  0.00  0.00    +0.000 C 
BRANCH   9  10
ATOM     10  O   UNL     1      45.008   2.283   9.544  0.00  0.00    +0.000 OA
BRANCH  10  11
ATOM     11  C   UNL     1      45.790   2.241   8.417  0.00  0.00    +0.000 A 
ATOM     12  C   UNL     1      46.493   1.118   7.970  0.00  0.00    +0.000 A 
ATOM     13  C   UNL     1      47.254   1.182   6.800  0.00  0.00    +0.000 A 
ATOM     14  C   UNL     1      47.311   2.365   6.067  0.00  0.00    +0.000 A 
ATOM     15  C   UNL     1      46.600   3.482   6.501  0.00  0.00    +0.000 A 
ATOM     16  C   UNL     1      45.836   3.418   7.669  0.00  0.00    +0.000 A 
ENDBRANCH  10  11
ENDBRANCH   9  10
ENDBRANCH   8   9
ENDBRANCH   5   8
ENDBRANCH   1   2
BRANCH   1  19
ATOM     17  C   UNL     1      49.180   6.527  16.056  0.00  0.00    +0.000 C 
ATOM     18  O   UNL     1      50.314   6.527  15.599  0.00  0.00    +0.000 OA
ATOM     19  N   UNL     1      48.067   6.667  15.256  0.00  0.00    +0.000 N 
ATOM     20  H   UNL     1      47.143   6.558  15.649  0.00  0.00    +0.000 HD
BRANCH  17  24
ATOM     21  C   UNL     1      48.733   4.476  20.577  0.00  0.00    +0.000 C 
ATOM     22  N   UNL     1      48.702   5.442  19.503  0.00  0.00    +0.000 N 
ATOM     23  C   UNL     1      49.136   5.229  18.223  0.00  0.00    +0.000 A 
ATOM     24  C   UNL     1      48.906   6.386  17.483  0.00  0.00    +0.000 A 
ATOM     25  C   UNL     1      48.321   7.344  18.386  0.00  0.00    +0.000 A 
ATOM     26  C   UNL     1      47.864   8.661  18.389  0.00  0.00    +0.000 A 
ATOM     27 CL   UNL     1      47.993   9.646  17.017  0.00  0.00    +0.000 Cl
ATOM     28  N   UNL     1      47.367   9.249  19.492  0.00  0.00    +0.000 NA
ATOM     29  C   UNL     1      47.319   8.506  20.605  0.00  0.00    +0.000 A 
ATOM     30  N   UNL     1      47.722   7.237  20.761  0.00  0.00    +0.000 NA
ATOM     31  C   UNL     1      48.214   6.714  19.623  0.00  0.00    +0.000 A 
ENDBRANCH  17  24
ENDBRANCH   1  19
TORSDOF 7
ENDMDL
MODEL 4
REMARK VINA RESULT:    -7.452      2.337      3.482
REMARK INTER + INTRA:         -12.012
REMARK INTER:                 -10.798
REMARK INTRA:                  -1.215
REMARK UNBOUND:                -1.511
REMARK  Name = 
REMARK  8 active torsions:
REMARK  status: ('A' for Active; 'I' for Inactive)
REMARK    1  A    between atoms: C_1  and  N_2
REMARK    2  A    between atoms: C_4  and  C_5
REMARK    3  A    between atoms: N_7  and  C_8
REMARK    4  A    between atoms: C_8  and  C_9
REMARK    5  A    between atoms: C_12  and  C_13
REMARK    6  A    between atoms: C_13  and  C_14
REMARK    7  A    between atoms: C_14  and  O_15
REMARK    8  A    between atoms: O_15  and  C_16
REMARK                            x       y       z     vdW  Elec       q    Type
REMARK                         _______ _______ _______ _____ _____    ______ ____
ROOT
ATOM      1  C   UNL     1      47.352   3.926  15.352  0.00  0.00    +0.000 C 
ENDROOT
BRANCH   1   2
ATOM      2  C   UNL     1      46.744   4.310  14.033  0.00  0.00    +0.000 A 
ATOM      3  C   UNL     1      46.117   3.340  13.245  0.00  0.00    +0.000 A 
ATOM      4  C   UNL     1      45.536   3.686  12.024  0.00  0.00    +0.000 A 
ATOM      5  C   UNL     1      45.575   5.007  11.552  0.00  0.00    +0.000 A 
ATOM      6  C   UNL     1      46.219   5.972  12.338  0.00  0.00    +0.000 A 
ATOM      7  C   UNL     1      46.802   5.627  13.563  0.00  0.00    +0.000 A 
BRANCH   5   8
ATOM      8  C   UNL     1      44.947   5.437  10.240  0.00  0.00    +0.000 C 
BRANCH   8   9
ATOM      9  C   UNL     1      44.356   4.297   9.411  0.00  0.00    +0.000 C 
BRANCH   9  10
ATOM     10  O   UNL     1      44.849   4.344   8.069  0.00  0.00    +0.000 OA
BRANCH  10  11
ATOM     11  C   UNL     1      45.681   3.303   7.742  0.00  0.00    +0.000 A 
ATOM     12  C   UNL     1      45.683   2.051   8.364  0.00  0.00    +0.000 A 
ATOM     13  C   UNL     1      46.569   1.056   7.944  0.00  0.00    +0.000 A 
ATOM     14  C   UNL     1      47.453   1.303   6.896  0.00  0.00    +0.000 A 
ATOM     15  C   UNL     1      47.444   2.545   6.264  0.00  0.00    +0.000 A 
ATOM     16  C   UNL     1      46.556   3.539   6.680  0.00  0.00    +0.000 A 
ENDBRANCH  10  11
ENDBRANCH   9  10
ENDBRANCH   8   9
ENDBRANCH   5   8
ENDBRANCH   1   2
BRANCH   1  19
ATOM     17  C   UNL     1      48.505   5.356  16.953  0.00  0.00    +0.000 C 
ATOM     18  O   UNL     1      49.570   4.803  16.720  0.00  0.00    +0.000 OA
ATOM     19  N   UNL     1      47.347   5.027  16.282  0.00  0.00    +0.000 N 
ATOM     20  H   UNL     1      46.465   5.426  16.568  0.00  0.00    +0.000 HD
BRANCH  17  24
ATOM     21  C   UNL     1      47.844   7.610  21.349  0.00  0.00    +0.000 C 
ATOM     22  N   UNL     1      48.056   7.404  19.935  0.00  0.00    +0.000 N 
ATOM     23  C   UNL     1      48.225   6.194  19.320  0.00  0.00    +0.000 A 
ATOM     24  C   UNL     1      48.366   6.411  17.952  0.00  0.00    +0.000 A 
ATOM     25  C   UNL     1      48.297   7.836  17.752  0.00  0.00    +0.000 A 
ATOM     26  C   UNL     1      48.377   8.770  16.720  0.00  0.00    +0.000 A 
ATOM     27 CL   UNL     1      48.710   8.302  15.126  0.00  0.00    +0.000 Cl
ATOM     28  N   UNL     1      48.272  10.093  16.936  0.00  0.00    +0.000 NA
ATOM     29  C   UNL     1      48.076  10.487  18.201  0.00  0.00    +0.000 A 
ATOM     30  N   UNL     1      47.984   9.716  19.293  0.00  0.00    +0.000 NA
ATOM     31  C   UNL     1      48.104   8.407  19.007  0.00  0.00    +0.000 A 
ENDBRANCH  17  24
ENDBRANCH   1  19
TORSDOF 7
ENDMDL
MODEL 5
REMARK VINA RESULT:    -7.143      2.181      2.742
REMARK INTER + INTRA:         -11.578
REMARK INTER:                 -10.133
REMARK INTRA:                  -1.445
REMARK UNBOUND:                -1.511
REMARK  Name = 
REMARK  8 active torsions:
REMARK  status: ('A' for Active; 'I' for Inactive)
REMARK    1  A    between atoms: C_1  and  N_2
REMARK    2  A    between atoms: C_4  and  C_5
REMARK    3  A    between atoms: N_7  and  C_8
REMARK    4  A    between atoms: C_8  and  C_9
REMARK    5  A    between atoms: C_12  and  C_13
REMARK    6  A    between atoms: C_13  and  C_14
REMARK    7  A    between atoms: C_14  and  O_15
REMARK    8  A    between atoms: O_15  and  C_16
REMARK                            x       y       z     vdW  Elec       q    Type
REMARK                         _______ _______ _______ _____ _____    ______ ____
ROOT
ATOM      1  C   UNL     1      48.502   7.647  13.004  0.00  0.00    +0.000 C 
ENDROOT
BRANCH   1   2
ATOM      2  C   UNL     1      47.263   6.799  13.001  0.00  0.00    +0.000 A 
ATOM      3  C   UNL     1      47.271   5.550  13.628  0.00  0.00    +0.000 A 
ATOM      4  C   UNL     1      46.122   4.757  13.644  0.00  0.00    +0.000 A 
ATOM      5  C   UNL     1      44.937   5.186  13.027  0.00  0.00    +0.000 A 
ATOM      6  C   UNL     1      44.940   6.432  12.384  0.00  0.00    +0.000 A 
ATOM      7  C   UNL     1      46.091   7.228  12.367  0.00  0.00    +0.000 A 
BRANCH   5   8
ATOM      8  C   UNL     1      43.660   4.370  13.028  0.00  0.00    +0.000 C 
BRANCH   8   9
ATOM      9  C   UNL     1      43.718   3.090  12.195  0.00  0.00    +0.000 C 
BRANCH   9  10
ATOM     10  O   UNL     1      43.206   3.324  10.880  0.00  0.00    +0.000 OA
BRANCH  10  11
ATOM     11  C   UNL     1      44.156   3.273   9.892  0.00  0.00    +0.000 A 
ATOM     12  C   UNL     1      44.719   4.388   9.262  0.00  0.00    +0.000 A 
ATOM     13  C   UNL     1      45.691   4.224   8.272  0.00  0.00    +0.000 A 
ATOM     14  C   UNL     1      46.110   2.946   7.909  0.00  0.00    +0.000 A 
ATOM     15  C   UNL     1      45.562   1.832   8.543  0.00  0.00    +0.000 A 
ATOM     16  C   UNL     1      44.593   1.996   9.537  0.00  0.00    +0.000 A 
ENDBRANCH  10  11
ENDBRANCH   9  10
ENDBRANCH   8   9
ENDBRANCH   5   8
ENDBRANCH   1   2
BRANCH   1  19
ATOM     17  C   UNL     1      49.799   7.625  15.066  0.00  0.00    +0.000 C 
ATOM     18  O   UNL     1      49.121   8.528  15.535  0.00  0.00    +0.000 OA
ATOM     19  N   UNL     1      49.537   7.077  13.830  0.00  0.00    +0.000 N 
ATOM     20  H   UNL     1      50.175   6.407  13.426  0.00  0.00    +0.000 HD
BRANCH  17  24
ATOM     21  C   UNL     1      54.493   6.732  16.486  0.00  0.00    +0.000 C 
ATOM     22  N   UNL     1      53.054   6.653  16.390  0.00  0.00    +0.000 N 
ATOM     23  C   UNL     1      52.258   7.460  15.624  0.00  0.00    +0.000 A 
ATOM     24  C   UNL     1      50.937   7.046  15.775  0.00  0.00    +0.000 A 
ATOM     25  C   UNL     1      50.955   5.942  16.700  0.00  0.00    +0.000 A 
ATOM     26  C   UNL     1      50.069   5.068  17.329  0.00  0.00    +0.000 A 
ATOM     27 CL   UNL     1      48.393   5.206  17.123  0.00  0.00    +0.000 Cl
ATOM     28  N   UNL     1      50.481   4.120  18.189  0.00  0.00    +0.000 NA
ATOM     29  C   UNL     1      51.798   4.039  18.416  0.00  0.00    +0.000 A 
ATOM     30  N   UNL     1      52.767   4.805  17.896  0.00  0.00    +0.000 NA
ATOM     31  C   UNL     1      52.286   5.736  17.052  0.00  0.00    +0.000 A 
ENDBRANCH  17  24
ENDBRANCH   1  19
TORSDOF 7
ENDMDL
MODEL 6
REMARK VINA RESULT:    -6.535      3.751      9.273
REMARK INTER + INTRA:         -10.720
REMARK INTER:                  -8.801
REMARK INTRA:                  -1.919
REMARK UNBOUND:                -1.511
REMARK  Name = 
REMARK  8 active torsions:
REMARK  status: ('A' for Active; 'I' for Inactive)
REMARK    1  A    between atoms: C_1  and  N_2
REMARK    2  A    between atoms: C_4  and  C_5
REMARK    3  A    between atoms: N_7  and  C_8
REMARK    4  A    between atoms: C_8  and  C_9
REMARK    5  A    between atoms: C_12  and  C_13
REMARK    6  A    between atoms: C_13  and  C_14
REMARK    7  A    between atoms: C_14  and  O_15
REMARK    8  A    between atoms: O_15  and  C_16
REMARK                            x       y       z     vdW  Elec       q    Type
REMARK                         _______ _______ _______ _____ _____    ______ ____
ROOT
ATOM      1  C   UNL     1      47.671   3.552  16.493  0.00  0.00    +0.000 C 
ENDROOT
BRANCH   1   2
ATOM      2  C   UNL     1      47.848   4.272  17.799  0.00  0.00    +0.000 A 
ATOM      3  C   UNL     1      48.910   3.933  18.644  0.00  0.00    +0.000 A 
ATOM      4  C   UNL     1      49.094   4.604  19.854  0.00  0.00    +0.000 A 
ATOM      5  C   UNL     1      48.218   5.623  20.258  0.00  0.00    +0.000 A 
ATOM      6  C   UNL     1      47.146   5.947  19.415  0.00  0.00    +0.000 A 
ATOM      7  C   UNL     1      46.960   5.276  18.201  0.00  0.00    +0.000 A 
BRANCH   5   8
ATOM      8  C   UNL     1      48.383   6.391  21.556  0.00  0.00    +0.000 C 
BRANCH   8   9
ATOM      9  C   UNL     1      48.174   7.900  21.436  0.00  0.00    +0.000 C 
BRANCH   9  10
ATOM     10  O   UNL     1      49.293   8.513  20.792  0.00  0.00    +0.000 OA
BRANCH  10  11
ATOM     11  C   UNL     1      49.104   8.760  19.455  0.00  0.00    +0.000 A 
ATOM     12  C   UNL     1      49.922   8.281  18.427  0.00  0.00    +0.000 A 
ATOM     13  C   UNL     1      49.631   8.585  17.094  0.00  0.00    +0.000 A 
ATOM     14  C   UNL     1      48.519   9.363  16.782  0.00  0.00    +0.000 A 
ATOM     15  C   UNL     1      47.693   9.831  17.802  0.00  0.00    +0.000 A 
ATOM     16  C   UNL     1      47.981   9.524  19.134  0.00  0.00    +0.000 A 
ENDBRANCH  10  11
ENDBRANCH   9  10
ENDBRANCH   8   9
ENDBRANCH   5   8
ENDBRANCH   1   2
BRANCH   1  19
ATOM     17  C   UNL     1      46.823   4.143  14.286  0.00  0.00    +0.000 C 
ATOM     18  O   UNL     1      47.696   3.481  13.744  0.00  0.00    +0.000 OA
ATOM     19  N   UNL     1      46.691   4.200  15.656  0.00  0.00    +0.000 N 
ATOM     20  H   UNL     1      46.028   4.835  16.076  0.00  0.00    +0.000 HD
BRANCH  17  24
ATOM     21  C   UNL     1      42.675   5.329  11.790  0.00  0.00    +0.000 C 
ATOM     22  N   UNL     1      43.977   5.431  12.406  0.00  0.00    +0.000 N 
ATOM     23  C   UNL     1      44.590   4.457  13.146  0.00  0.00    +0.000 A 
ATOM     24  C   UNL     1      45.844   4.922  13.534  0.00  0.00    +0.000 A 
ATOM     25  C   UNL     1      45.968   6.258  13.008  0.00  0.00    +0.000 A 
ATOM     26  C   UNL     1      46.875   7.317  12.999  0.00  0.00    +0.000 A 
ATOM     27 CL   UNL     1      48.331   7.242  13.862  0.00  0.00    +0.000 Cl
ATOM     28  N   UNL     1      46.618   8.480  12.375  0.00  0.00    +0.000 NA
ATOM     29  C   UNL     1      45.442   8.582  11.744  0.00  0.00    +0.000 A 
ATOM     30  N   UNL     1      44.471   7.661  11.667  0.00  0.00    +0.000 NA
ATOM     31  C   UNL     1      44.789   6.527  12.318  0.00  0.00    +0.000 A 
ENDBRANCH  17  24
ENDBRANCH   1  19
TORSDOF 7
ENDMDL
MODEL 7
REMARK VINA RESULT:    -6.297      4.679      9.097
REMARK INTER + INTRA:         -10.384
REMARK INTER:                  -9.440
REMARK INTRA:                  -0.944
REMARK UNBOUND:                -1.511
REMARK  Name = 
REMARK  8 active torsions:
REMARK  status: ('A' for Active; 'I' for Inactive)
REMARK    1  A    between atoms: C_1  and  N_2
REMARK    2  A    between atoms: C_4  and  C_5
REMARK    3  A    between atoms: N_7  and  C_8
REMARK    4  A    between atoms: C_8  and  C_9
REMARK    5  A    between atoms: C_12  and  C_13
REMARK    6  A    between atoms: C_13  and  C_14
REMARK    7  A    between atoms: C_14  and  O_15
REMARK    8  A    between atoms: O_15  and  C_16
REMARK                            x       y       z     vdW  Elec       q    Type
REMARK                         _______ _______ _______ _____ _____    ______ ____
ROOT
ATOM      1  C   UNL     1      47.278   3.424  16.856  0.00  0.00    +0.000 C 
ENDROOT
BRANCH   1   2
ATOM      2  C   UNL     1      48.749   3.410  17.160  0.00  0.00    +0.000 A 
ATOM      3  C   UNL     1      49.387   4.583  17.575  0.00  0.00    +0.000 A 
ATOM      4  C   UNL     1      50.750   4.580  17.875  0.00  0.00    +0.000 A 
ATOM      5  C   UNL     1      51.515   3.410  17.759  0.00  0.00    +0.000 A 
ATOM      6  C   UNL     1      50.874   2.240  17.327  0.00  0.00    +0.000 A 
ATOM      7  C   UNL     1      49.507   2.241  17.026  0.00  0.00    +0.000 A 
BRANCH   5   8
ATOM      8  C   UNL     1      52.995   3.351  18.086  0.00  0.00    +0.000 C 
BRANCH   8   9
ATOM      9  C   UNL     1      53.526   1.952  18.394  0.00  0.00    +0.000 C 
BRANCH   9  10
ATOM     10  O   UNL     1      54.291   1.452  17.294  0.00  0.00    +0.000 OA
BRANCH  10  11
ATOM     11  C   UNL     1      54.521   0.100  17.340  0.00  0.00    +0.000 A 
ATOM     12  C   UNL     1      54.315  -0.711  18.461  0.00  0.00    +0.000 A 
ATOM     13  C   UNL     1      54.572  -2.083  18.396  0.00  0.00    +0.000 A 
ATOM     14  C   UNL     1      55.030  -2.653  17.211  0.00  0.00    +0.000 A 
ATOM     15  C   UNL     1      55.223  -1.851  16.087  0.00  0.00    +0.000 A 
ATOM     16  C   UNL     1      54.962  -0.480  16.150  0.00  0.00    +0.000 A 
ENDBRANCH  10  11
ENDBRANCH   9  10
ENDBRANCH   8   9
ENDBRANCH   5   8
ENDBRANCH   1   2
BRANCH   1  19
ATOM     17  C   UNL     1      47.000   4.222  14.570  0.00  0.00    +0.000 C 
ATOM     18  O   UNL     1      47.248   3.111  14.124  0.00  0.00    +0.000 OA
ATOM     19  N   UNL     1      46.937   4.470  15.924  0.00  0.00    +0.000 N 
ATOM     20  H   UNL     1      46.834   5.416  16.261  0.00  0.00    +0.000 HD
BRANCH  17  24
ATOM     21  C   UNL     1      47.617   8.605  12.279  0.00  0.00    +0.000 C 
ATOM     22  N   UNL     1      47.035   7.352  12.703  0.00  0.00    +0.000 N 
ATOM     23  C   UNL     1      47.637   6.423  13.507  0.00  0.00    +0.000 A 
ATOM     24  C   UNL     1      46.743   5.375  13.713  0.00  0.00    +0.000 A 
ATOM     25  C   UNL     1      45.552   5.698  12.970  0.00  0.00    +0.000 A 
ATOM     26  C   UNL     1      44.300   5.156  12.681  0.00  0.00    +0.000 A 
ATOM     27 CL   UNL     1      43.852   3.618  13.234  0.00  0.00    +0.000 Cl
ATOM     28  N   UNL     1      43.410   5.781  11.890  0.00  0.00    +0.000 NA
ATOM     29  C   UNL     1      43.773   6.968  11.389  0.00  0.00    +0.000 A 
ATOM     30  N   UNL     1      44.935   7.612  11.569  0.00  0.00    +0.000 NA
ATOM     31  C   UNL     1      45.780   6.929  12.362  0.00  0.00    +0.000 A 
ENDBRANCH  17  24
ENDBRANCH   1  19
TORSDOF 7
ENDMDL
MODEL 8
REMARK VINA RESULT:    -6.113      3.677      8.085
REMARK INTER + INTRA:         -10.126
REMARK INTER:                  -8.464
REMARK INTRA:                  -1.662
REMARK UNBOUND:                -1.511
REMARK  Name = 
REMARK  8 active torsions:
REMARK  status: ('A' for Active; 'I' for Inactive)
REMARK    1  A    between atoms: C_1  and  N_2
REMARK    2  A    between atoms: C_4  and  C_5
REMARK    3  A    between atoms: N_7  and  C_8
REMARK    4  A    between atoms: C_8  and  C_9
REMARK    5  A    between atoms: C_12  and  C_13
REMARK    6  A    between atoms: C_13  and  C_14
REMARK    7  A    between atoms: C_14  and  O_15
REMARK    8  A    between atoms: O_15  and  C_16
REMARK                            x       y       z     vdW  Elec       q    Type
REMARK                         _______ _______ _______ _____ _____    ______ ____
ROOT
ATOM      1  C   UNL     1      49.654   7.963  13.998  0.00  0.00    +0.000 C 
ENDROOT
BRANCH   1   2
ATOM      2  C   UNL     1      49.738   7.713  15.477  0.00  0.00    +0.000 A 
ATOM      3  C   UNL     1      48.835   8.338  16.342  0.00  0.00    +0.000 A 
ATOM      4  C   UNL     1      48.893   8.103  17.717  0.00  0.00    +0.000 A 
ATOM      5  C   UNL     1      49.860   7.248  18.266  0.00  0.00    +0.000 A 
ATOM      6  C   UNL     1      50.774   6.637  17.395  0.00  0.00    +0.000 A 
ATOM      7  C   UNL     1      50.717   6.871  16.017  0.00  0.00    +0.000 A 
BRANCH   5   8
ATOM      8  C   UNL     1      49.956   6.949  19.749  0.00  0.00    +0.000 C 
BRANCH   8   9
ATOM      9  C   UNL     1      49.999   5.463  20.101  0.00  0.00    +0.000 C 
BRANCH   9  10
ATOM     10  O   UNL     1      48.691   4.890  20.021  0.00  0.00    +0.000 OA
BRANCH  10  11
ATOM     11  C   UNL     1      48.408   4.307  18.811  0.00  0.00    +0.000 A 
ATOM     12  C   UNL     1      47.326   4.645  17.991  0.00  0.00    +0.000 A 
ATOM     13  C   UNL     1      47.136   3.993  16.770  0.00  0.00    +0.000 A 
ATOM     14  C   UNL     1      48.028   3.006  16.359  0.00  0.00    +0.000 A 
ATOM     15  C   UNL     1      49.115   2.676  17.166  0.00  0.00    +0.000 A 
ATOM     16  C   UNL     1      49.308   3.330  18.385  0.00  0.00    +0.000 A 
ENDBRANCH  10  11
ENDBRANCH   9  10
ENDBRANCH   8   9
ENDBRANCH   5   8
ENDBRANCH   1   2
BRANCH   1  19
ATOM     17  C   UNL     1      47.809   6.738  12.982  0.00  0.00    +0.000 C 
ATOM     18  O   UNL     1      48.465   5.707  12.971  0.00  0.00    +0.000 OA
ATOM     19  N   UNL     1      48.294   7.909  13.525  0.00  0.00    +0.000 N 
ATOM     20  H   UNL     1      47.772   8.767  13.426  0.00  0.00    +0.000 HD
BRANCH  17  24
ATOM     21  C   UNL     1      43.657   8.630  10.976  0.00  0.00    +0.000 C 
ATOM     22  N   UNL     1      44.600   7.692  11.541  0.00  0.00    +0.000 N 
ATOM     23  C   UNL     1      45.891   7.972  11.896  0.00  0.00    +0.000 A 
ATOM     24  C   UNL     1      46.459   6.820  12.432  0.00  0.00    +0.000 A 
ATOM     25  C   UNL     1      45.448   5.795  12.371  0.00  0.00    +0.000 A 
ATOM     26  C   UNL     1      45.283   4.446  12.678  0.00  0.00    +0.000 A 
ATOM     27 CL   UNL     1      46.564   3.509  13.273  0.00  0.00    +0.000 Cl
ATOM     28  N   UNL     1      44.130   3.791  12.453  0.00  0.00    +0.000 NA
ATOM     29  C   UNL     1      43.126   4.499  11.920  0.00  0.00    +0.000 A 
ATOM     30  N   UNL     1      43.133   5.792  11.567  0.00  0.00    +0.000 NA
ATOM     31  C   UNL     1      44.316   6.383  11.813  0.00  0.00    +0.000 A 
ENDBRANCH  17  24
ENDBRANCH   1  19
TORSDOF 7
ENDMDL
MODEL 9
REMARK VINA RESULT:    -5.810      5.599      7.774
REMARK INTER + INTRA:          -9.698
REMARK INTER:                  -8.759
REMARK INTRA:                  -0.939
REMARK UNBOUND:                -1.511
REMARK  Name = 
REMARK  8 active torsions:
REMARK  status: ('A' for Active; 'I' for Inactive)
REMARK    1  A    between atoms: C_1  and  N_2
REMARK    2  A    between atoms: C_4  and  C_5
REMARK    3  A    between atoms: N_7  and  C_8
REMARK    4  A    between atoms: C_8  and  C_9
REMARK    5  A    between atoms: C_12  and  C_13
REMARK    6  A    between atoms: C_13  and  C_14
REMARK    7  A    between atoms: C_14  and  O_15
REMARK    8  A    between atoms: O_15  and  C_16
REMARK                            x       y       z     vdW  Elec       q    Type
REMARK                         _______ _______ _______ _____ _____    ______ ____
ROOT
ATOM      1  C   UNL     1      51.146   8.420  11.833  0.00  0.00    +0.000 C 
ENDROOT
BRANCH   1   2
ATOM      2  C   UNL     1      49.687   8.120  12.026  0.00  0.00    +0.000 A 
ATOM      3  C   UNL     1      48.740   9.139  11.887  0.00  0.00    +0.000 A 
ATOM      4  C   UNL     1      47.380   8.870  12.051  0.00  0.00    +0.000 A 
ATOM      5  C   UNL     1      46.930   7.579  12.366  0.00  0.00    +0.000 A 
ATOM      6  C   UNL     1      47.885   6.564  12.522  0.00  0.00    +0.000 A 
ATOM      7  C   UNL     1      49.249   6.832  12.358  0.00  0.00    +0.000 A 
BRANCH   5   8
ATOM      8  C   UNL     1      45.464   7.232  12.540  0.00  0.00    +0.000 C 
BRANCH   8   9
ATOM      9  C   UNL     1      45.134   5.749  12.372  0.00  0.00    +0.000 C 
BRANCH   9  10
ATOM     10  O   UNL     1      44.173   5.564  11.328  0.00  0.00    +0.000 OA
BRANCH  10  11
ATOM     11  C   UNL     1      44.541   4.637  10.386  0.00  0.00    +0.000 A 
ATOM     12  C   UNL     1      44.111   3.306  10.360  0.00  0.00    +0.000 A 
ATOM     13  C   UNL     1      44.541   2.447   9.346  0.00  0.00    +0.000 A 
ATOM     14  C   UNL     1      45.396   2.912   8.350  0.00  0.00    +0.000 A 
ATOM     15  C   UNL     1      45.816   4.241   8.365  0.00  0.00    +0.000 A 
ATOM     16  C   UNL     1      45.384   5.103   9.376  0.00  0.00    +0.000 A 
ENDBRANCH  10  11
ENDBRANCH   9  10
ENDBRANCH   8   9
ENDBRANCH   5   8
ENDBRANCH   1   2
BRANCH   1  19
ATOM     17  C   UNL     1      52.680   8.705   9.961  0.00  0.00    +0.000 C 
ATOM     18  O   UNL     1      53.341   9.517  10.591  0.00  0.00    +0.000 OA
ATOM     19  N   UNL     1      51.595   8.058  10.512  0.00  0.00    +0.000 N 
ATOM     20  H   UNL     1      51.008   7.472   9.936  0.00  0.00    +0.000 HD
BRANCH  17  24
ATOM     21  C   UNL     1      53.174   9.045   5.014  0.00  0.00    +0.000 C 
ATOM     22  N   UNL     1      53.188   8.514   6.357  0.00  0.00    +0.000 N 
ATOM     23  C   UNL     1      52.893   9.211   7.495  0.00  0.00    +0.000 A 
ATOM     24  C   UNL     1      52.984   8.343   8.580  0.00  0.00    +0.000 A 
ATOM     25  C   UNL     1      53.376   7.062   8.050  0.00  0.00    +0.000 A 
ATOM     26  C   UNL     1      53.676   5.775   8.494  0.00  0.00    +0.000 A 
ATOM     27 CL   UNL     1      53.700   5.390  10.144  0.00  0.00    +0.000 Cl
ATOM     28  N   UNL     1      54.036   4.789   7.653  0.00  0.00    +0.000 NA
ATOM     29  C   UNL     1      54.088   5.092   6.350  0.00  0.00    +0.000 A 
ATOM     30  N   UNL     1      53.836   6.276   5.774  0.00  0.00    +0.000 NA
ATOM     31  C   UNL     1      53.489   7.217   6.671  0.00  0.00    +0.000 A 
ENDBRANCH  17  24
ENDBRANCH   1  19
TORSDOF 7
ENDMDL
