MODEL 1
REMARK VINA RESULT:    -8.019      0.000      0.000
REMARK INTER + INTRA:         -10.374
REMARK INTER:                  -9.894
REMARK INTRA:                  -0.480
REMARK UNBOUND:                -0.480
REMARK  Name = 
REMARK  4 active torsions:
REMARK  status: ('A' for Active; 'I' for Inactive)
REMARK    1  A    between atoms: C_2  and  C_4
REMARK    2  A    between atoms: C_8  and  C_9
REMARK    3  A    between atoms: C_9  and  S_10
REMARK    4  A    between atoms: S_10  and  C_11
REMARK                            x       y       z     vdW  Elec       q    Type
REMARK                         _______ _______ _______ _____ _____    ______ ____
ROOT
ATOM      1  S   UNL     1      43.646   4.047  11.620  0.00  0.00    +0.000 S 
ENDROOT
BRANCH   1   2
ATOM      2  C   UNL     1      45.246   4.419  12.331  0.00  0.00    +0.000 A 
ATOM      3  C   UNL     1      45.863   3.424  13.087  0.00  0.00    +0.000 A 
ATOM      4  C   UNL     1      47.043   3.727  13.740  0.00  0.00    +0.000 A 
ATOM      5  N   UNL     1      47.630   4.940  13.706  0.00  0.00    +0.000 NA
ATOM      6  C   UNL     1      47.030   5.914  12.991  0.00  0.00    +0.000 A 
ATOM      7  N   UNL     1      47.516   7.231  13.054  0.00  0.00    +0.000 N 
ATOM      8  C   UNL     1      48.264   7.500  14.291  0.00  0.00    +0.000 C 
ATOM      9  C   UNL     1      48.423   9.014  14.428  0.00  0.00    +0.000 C 
ATOM     10  C   UNL     1      49.106   9.612  13.198  0.00  0.00    +0.000 C 
ATOM     11  C   UNL     1      48.426   9.163  11.901  0.00  0.00    +0.000 C 
ATOM     12  C   UNL     1      48.246   7.642  11.849  0.00  0.00    +0.000 C 
ATOM     13  C   UNL     1      45.850   5.676  12.279  0.00  0.00    +0.000 A 
ENDBRANCH   1   2
BRANCH   1  14
ATOM     14  C   UNL     1      43.997   2.653  10.490  0.00  0.00    +0.000 C 
BRANCH  14  19
ATOM     15  C   UNL     1      46.580   2.468   7.669  0.00  0.00    +0.000 A 
ATOM     16  C   UNL     1      46.693   3.815   7.307  0.00  0.00    +0.000 A 
ATOM     17  C   UNL     1      45.964   4.783   7.996  0.00  0.00    +0.000 A 
ATOM     18  C   UNL     1      45.107   4.410   9.035  0.00  0.00    +0.000 A 
ATOM     19  C   UNL     1      44.966   3.063   9.401  0.00  0.00    +0.000 A 
ATOM     20  C   UNL     1      45.712   2.096   8.706  0.00  0.00    +0.000 A 
BRANCH  15  22
ATOM     21  N   UNL     1      48.474   1.778   6.304  0.00  0.00    +0.000 N 
ATOM     22  C   UNL     1      47.330   1.406   6.949  0.00  0.00    +0.000 C 
ATOM     23  O   UNL     1      46.961   0.238   6.954  0.00  0.00    +0.000 OA
ATOM     24  H   UNL     1      49.022   1.033   5.887  0.00  0.00    +0.000 HD
ATOM     25  H   UNL     1      48.937   2.661   6.472  0.00  0.00    +0.000 HD
ENDBRANCH  15  22
ENDBRANCH  14  19
ENDBRANCH   1  14
TORSDOF 4
ENDMDL
MODEL 2
REMARK VINA RESULT:    -8.009      3.265      7.410
REMARK INTER + INTRA:         -10.361
REMARK INTER:                  -9.888
REMARK INTRA:                  -0.473
REMARK UNBOUND:                -0.480
REMARK  Name = 
REMARK  4 active torsions:
REMARK  status: ('A' for Active; 'I' for Inactive)
REMARK    1  A    between atoms: C_2  and  C_4
REMARK    2  A    between atoms: C_8  and  C_9
REMARK    3  A    between atoms: C_9  and  S_10
REMARK    4  A    between atoms: S_10  and  C_11
REMARK                            x       y       z     vdW  Elec       q    Type
REMARK                         _______ _______ _______ _____ _____    ______ ____
ROOT
ATOM      1  S   UNL     1      45.175   6.361  12.771  0.00  0.00    +0.000 S 
ENDROOT
BRANCH   1   2
ATOM      2  C   UNL     1      44.657   5.002  11.728  0.00  0.00    +0.000 A 
ATOM      3  C   UNL     1      43.611   4.202  12.183  0.00  0.00    +0.000 A 
ATOM      4  C   UNL     1      43.270   3.080  11.451  0.00  0.00    +0.000 A 
ATOM      5  N   UNL     1      43.903   2.698  10.325  0.00  0.00    +0.000 NA
ATOM      6  C   UNL     1      44.929   3.457   9.886  0.00  0.00    +0.000 A 
ATOM      7  N   UNL     1      45.718   3.016   8.810  0.00  0.00    +0.000 N 
ATOM      8  C   UNL     1      45.683   1.556   8.644  0.00  0.00    +0.000 C 
ATOM      9  C   UNL     1      46.829   1.158   7.715  0.00  0.00    +0.000 C 
ATOM     10  C   UNL     1      46.739   1.895   6.378  0.00  0.00    +0.000 C 
ATOM     11  C   UNL     1      46.581   3.405   6.575  0.00  0.00    +0.000 C 
ATOM     12  C   UNL     1      45.453   3.736   7.559  0.00  0.00    +0.000 C 
ATOM     13  C   UNL     1      45.313   4.623  10.557  0.00  0.00    +0.000 A 
ENDBRANCH   1   2
BRANCH   1  14
ATOM     14  C   UNL     1      47.000   6.278  12.703  0.00  0.00    +0.000 C 
BRANCH  14  19
ATOM     15  C   UNL     1      47.888   4.617  16.038  0.00  0.00    +0.000 A 
ATOM     16  C   UNL     1      48.762   5.559  16.593  0.00  0.00    +0.000 A 
ATOM     17  C   UNL     1      49.034   6.742  15.909  0.00  0.00    +0.000 A 
ATOM     18  C   UNL     1      48.452   6.983  14.661  0.00  0.00    +0.000 A 
ATOM     19  C   UNL     1      47.588   6.042  14.079  0.00  0.00    +0.000 A 
ATOM     20  C   UNL     1      47.313   4.857  14.781  0.00  0.00    +0.000 A 
BRANCH  15  22
ATOM     21  N   UNL     1      48.529   2.353  16.665  0.00  0.00    +0.000 N 
ATOM     22  C   UNL     1      47.585   3.337  16.731  0.00  0.00    +0.000 C 
ATOM     23  O   UNL     1      46.549   3.175  17.362  0.00  0.00    +0.000 OA
ATOM     24  H   UNL     1      48.350   1.517  17.210  0.00  0.00    +0.000 HD
ATOM     25  H   UNL     1      49.481   2.524  16.369  0.00  0.00    +0.000 HD
ENDBRANCH  15  22
ENDBRANCH  14  19
ENDBRANCH   1  14
TORSDOF 4
ENDMDL
MODEL 3
REMARK VINA RESULT:    -7.573      3.374      7.443
REMARK INTER + INTRA:          -9.824
REMARK INTER:                  -9.365
REMARK INTRA:                  -0.459
REMARK UNBOUND:                -0.480
REMARK  Name = 
REMARK  4 active torsions:
REMARK  status: ('A' for Active; 'I' for Inactive)
REMARK    1  A    between atoms: C_2  and  C_4
REMARK    2  A    between atoms: C_8  and  C_9
REMARK    3  A    between atoms: C_9  and  S_10
REMARK    4  A    between atoms: S_10  and  C_11
REMARK                            x       y       z     vdW  Elec       q    Type
REMARK                         _______ _______ _______ _____ _____    ______ ____
ROOT
ATOM      1  S   UNL     1      45.046   6.008  12.921  0.00  0.00    +0.000 S 
ENDROOT
BRANCH   1   2
ATOM      2  C   UNL     1      44.593   4.689  11.798  0.00  0.00    +0.000 A 
ATOM      3  C   UNL     1      43.587   3.815  12.203  0.00  0.00    +0.000 A 
ATOM      4  C   UNL     1      43.300   2.723  11.405  0.00  0.00    +0.000 A 
ATOM      5  N   UNL     1      43.950   2.439  10.259  0.00  0.00    +0.000 NA
ATOM      6  C   UNL     1      44.937   3.272   9.869  0.00  0.00    +0.000 A 
ATOM      7  N   UNL     1      45.745   2.934   8.769  0.00  0.00    +0.000 N 
ATOM      8  C   UNL     1      45.781   1.486   8.516  0.00  0.00    +0.000 C 
ATOM      9  C   UNL     1      46.943   1.200   7.567  0.00  0.00    +0.000 C 
ATOM     10  C   UNL     1      46.817   2.010   6.277  0.00  0.00    +0.000 C 
ATOM     11  C   UNL     1      46.586   3.496   6.563  0.00  0.00    +0.000 C 
ATOM     12  C   UNL     1      45.445   3.713   7.563  0.00  0.00    +0.000 C 
ATOM     13  C   UNL     1      45.266   4.413  10.608  0.00  0.00    +0.000 A 
ENDBRANCH   1   2
BRANCH   1  14
ATOM     14  C   UNL     1      46.823   6.266  12.579  0.00  0.00    +0.000 C 
BRANCH  14  19
ATOM     15  C   UNL     1      46.329   9.997  11.871  0.00  0.00    +0.000 A 
ATOM     16  C   UNL     1      47.650  10.423  11.690  0.00  0.00    +0.000 A 
ATOM     17  C   UNL     1      48.693   9.501  11.760  0.00  0.00    +0.000 A 
ATOM     18  C   UNL     1      48.425   8.155  12.030  0.00  0.00    +0.000 A 
ATOM     19  C   UNL     1      47.109   7.712  12.234  0.00  0.00    +0.000 A 
ATOM     20  C   UNL     1      46.064   8.648  12.151  0.00  0.00    +0.000 A 
BRANCH  15  22
ATOM     21  N   UNL     1      45.449  12.248  12.168  0.00  0.00    +0.000 N 
ATOM     22  C   UNL     1      45.192  10.953  11.818  0.00  0.00    +0.000 C 
ATOM     23  O   UNL     1      44.077  10.610  11.447  0.00  0.00    +0.000 OA
ATOM     24  H   UNL     1      44.689  12.908  12.048  0.00  0.00    +0.000 HD
ATOM     25  H   UNL     1      46.385  12.621  12.244  0.00  0.00    +0.000 HD
ENDBRANCH  15  22
ENDBRANCH  14  19
ENDBRANCH   1  14
TORSDOF 4
ENDMDL
MODEL 4
REMARK VINA RESULT:    -7.453      2.886      6.783
REMARK INTER + INTRA:          -9.675
REMARK INTER:                  -9.160
REMARK INTRA:                  -0.516
REMARK UNBOUND:                -0.480
REMARK  Name = 
REMARK  4 active torsions:
REMARK  status: ('A' for Active; 'I' for Inactive)
REMARK    1  A    between atoms: C_2  and  C_4
REMARK    2  A    between atoms: C_8  and  C_9
REMARK    3  A    between atoms: C_9  and  S_10
REMARK    4  A    between atoms: S_10  and  C_11
REMARK                            x       y       z     vdW  Elec       q    Type
REMARK                         _______ _______ _______ _____ _____    ______ ____
ROOT
ATOM      1  S   UNL     1      44.977   6.146  12.878  0.00  0.00    +0.000 S 
ENDROOT
BRANCH   1   2
ATOM      2  C   UNL     1      44.540   4.805  11.775  0.00  0.00    +0.000 A 
ATOM      3  C   UNL     1      43.540   3.928  12.190  0.00  0.00    +0.000 A 
ATOM      4  C   UNL     1      43.266   2.821  11.410  0.00  0.00    +0.000 A 
ATOM      5  N   UNL     1      43.923   2.524  10.272  0.00  0.00    +0.000 NA
ATOM      6  C   UNL     1      44.905   3.358   9.871  0.00  0.00    +0.000 A 
ATOM      7  N   UNL     1      45.721   3.009   8.782  0.00  0.00    +0.000 N 
ATOM      8  C   UNL     1      45.770   1.557   8.553  0.00  0.00    +0.000 C 
ATOM      9  C   UNL     1      46.940   1.265   7.614  0.00  0.00    +0.000 C 
ATOM     10  C   UNL     1      46.812   2.052   6.310  0.00  0.00    +0.000 C 
ATOM     11  C   UNL     1      46.567   3.541   6.570  0.00  0.00    +0.000 C 
ATOM     12  C   UNL     1      45.420   3.765   7.561  0.00  0.00    +0.000 C 
ATOM     13  C   UNL     1      45.220   4.514  10.592  0.00  0.00    +0.000 A 
ENDBRANCH   1   2
BRANCH   1  14
ATOM     14  C   UNL     1      46.766   5.899  13.160  0.00  0.00    +0.000 C 
BRANCH  14  19
ATOM     15  C   UNL     1      49.648   7.998  11.763  0.00  0.00    +0.000 A 
ATOM     16  C   UNL     1      49.032   9.245  11.604  0.00  0.00    +0.000 A 
ATOM     17  C   UNL     1      47.701   9.415  11.981  0.00  0.00    +0.000 A 
ATOM     18  C   UNL     1      46.974   8.340  12.500  0.00  0.00    +0.000 A 
ATOM     19  C   UNL     1      47.568   7.077  12.649  0.00  0.00    +0.000 A 
ATOM     20  C   UNL     1      48.913   6.918  12.275  0.00  0.00    +0.000 A 
BRANCH  15  22
ATOM     21  N   UNL     1      52.027   8.068  12.277  0.00  0.00    +0.000 N 
ATOM     22  C   UNL     1      51.061   7.774  11.358  0.00  0.00    +0.000 C 
ATOM     23  O   UNL     1      51.353   7.315  10.261  0.00  0.00    +0.000 OA
ATOM     24  H   UNL     1      52.980   7.833  12.023  0.00  0.00    +0.000 HD
ATOM     25  H   UNL     1      51.826   8.213  13.257  0.00  0.00    +0.000 HD
ENDBRANCH  15  22
ENDBRANCH  14  19
ENDBRANCH   1  14
TORSDOF 4
ENDMDL
MODEL 5
REMARK VINA RESULT:    -7.001      3.700      7.774
REMARK INTER + INTRA:          -9.118
REMARK INTER:                  -8.600
REMARK INTRA:                  -0.518
REMARK UNBOUND:                -0.480
REMARK  Name = 
REMARK  4 active torsions:
REMARK  status: ('A' for Active; 'I' for Inactive)
REMARK    1  A    between atoms: C_2  and  C_4
REMARK    2  A    between atoms: C_8  and  C_9
REMARK    3  A    between atoms: C_9  and  S_10
REMARK    4  A    between atoms: S_10  and  C_11
REMARK                            x       y       z     vdW  Elec       q    Type
REMARK                         _______ _______ _______ _____ _____    ______ ____
ROOT
ATOM      1  S   UNL     1      45.455   7.010  12.625  0.00  0.00    +0.000 S 
ENDROOT
BRANCH   1   2
ATOM      2  C   UNL     1      44.772   5.693  11.622  0.00  0.00    +0.000 A 
ATOM      3  C   UNL     1      43.567   5.129  12.033  0.00  0.00    +0.000 A 
ATOM      4  C   UNL     1      43.079   4.036  11.340  0.00  0.00    +0.000 A 
ATOM      5  N   UNL     1      43.711   3.467  10.295  0.00  0.00    +0.000 NA
ATOM      6  C   UNL     1      44.887   3.997   9.901  0.00  0.00    +0.000 A 
ATOM      7  N   UNL     1      45.657   3.346   8.922  0.00  0.00    +0.000 N 
ATOM      8  C   UNL     1      45.366   1.907   8.837  0.00  0.00    +0.000 C 
ATOM      9  C   UNL     1      46.483   1.246   8.032  0.00  0.00    +0.000 C 
ATOM     10  C   UNL     1      46.627   1.889   6.652  0.00  0.00    +0.000 C 
ATOM     11  C   UNL     1      46.736   3.413   6.748  0.00  0.00    +0.000 C 
ATOM     12  C   UNL     1      45.620   4.010   7.614  0.00  0.00    +0.000 C 
ATOM     13  C   UNL     1      45.430   5.120  10.533  0.00  0.00    +0.000 A 
ENDBRANCH   1   2
BRANCH   1  14
ATOM     14  C   UNL     1      47.223   6.564  12.765  0.00  0.00    +0.000 C 
BRANCH  14  19
ATOM     15  C   UNL     1      48.604   5.919  16.278  0.00  0.00    +0.000 A 
ATOM     16  C   UNL     1      47.979   4.710  16.605  0.00  0.00    +0.000 A 
ATOM     17  C   UNL     1      47.144   4.087  15.679  0.00  0.00    +0.000 A 
ATOM     18  C   UNL     1      46.913   4.677  14.433  0.00  0.00    +0.000 A 
ATOM     19  C   UNL     1      47.515   5.899  14.094  0.00  0.00    +0.000 A 
ATOM     20  C   UNL     1      48.363   6.513  15.031  0.00  0.00    +0.000 A 
BRANCH  15  22
ATOM     21  N   UNL     1      50.199   5.845  18.117  0.00  0.00    +0.000 N 
ATOM     22  C   UNL     1      49.490   6.620  17.245  0.00  0.00    +0.000 C 
ATOM     23  O   UNL     1      49.610   7.839  17.244  0.00  0.00    +0.000 OA
ATOM     24  H   UNL     1      50.862   6.326  18.714  0.00  0.00    +0.000 HD
ATOM     25  H   UNL     1      50.316   4.848  17.995  0.00  0.00    +0.000 HD
ENDBRANCH  15  22
ENDBRANCH  14  19
ENDBRANCH   1  14
TORSDOF 4
ENDMDL
MODEL 6
REMARK VINA RESULT:    -6.757      2.020      2.926
REMARK INTER + INTRA:          -8.817
REMARK INTER:                  -8.450
REMARK INTRA:                  -0.367
REMARK UNBOUND:                -0.480
REMARK  Name = 
REMARK  4 active torsions:
REMARK  status: ('A' for Active; 'I' for Inactive)
REMARK    1  A    between atoms: C_2  and  C_4
REMARK    2  A    between atoms: C_8  and  C_9
REMARK    3  A    between atoms: C_9  and  S_10
REMARK    4  A    between atoms: S_10  and  C_11
REMARK                            x       y       z     vdW  Elec       q    Type
REMARK                         _______ _______ _______ _____ _____    ______ ____
ROOT
ATOM      1  S   UNL     1      44.829   5.408  11.268  0.00  0.00    +0.000 S 
ENDROOT
BRANCH   1   2
ATOM      2  C   UNL     1      45.795   6.757  11.941  0.00  0.00    +0.000 A 
ATOM      3  C   UNL     1      45.146   7.659  12.781  0.00  0.00    +0.000 A 
ATOM      4  C   UNL     1      45.840   8.771  13.219  0.00  0.00    +0.000 A 
ATOM      5  N   UNL     1      47.111   9.049  12.868  0.00  0.00    +0.000 NA
ATOM      6  C   UNL     1      47.742   8.190  12.041  0.00  0.00    +0.000 A 
ATOM      7  N   UNL     1      49.007   8.515  11.522  0.00  0.00    +0.000 N 
ATOM      8  C   UNL     1      49.253   9.965  11.499  0.00  0.00    +0.000 C 
ATOM      9  C   UNL     1      50.461  10.225  10.602  0.00  0.00    +0.000 C 
ATOM     10  C   UNL     1      51.683   9.439  11.077  0.00  0.00    +0.000 C 
ATOM     11  C   UNL     1      51.357   7.957  11.282  0.00  0.00    +0.000 C 
ATOM     12  C   UNL     1      50.103   7.764  12.143  0.00  0.00    +0.000 C 
ATOM     13  C   UNL     1      47.115   7.028  11.579  0.00  0.00    +0.000 A 
ENDBRANCH   1   2
BRANCH   1  14
ATOM     14  C   UNL     1      45.217   5.456   9.483  0.00  0.00    +0.000 C 
BRANCH  14  19
ATOM     15  C   UNL     1      46.570   2.551   7.386  0.00  0.00    +0.000 A 
ATOM     16  C   UNL     1      45.928   1.458   7.979  0.00  0.00    +0.000 A 
ATOM     17  C   UNL     1      45.034   1.662   9.028  0.00  0.00    +0.000 A 
ATOM     18  C   UNL     1      44.791   2.955   9.502  0.00  0.00    +0.000 A 
ATOM     19  C   UNL     1      45.439   4.062   8.934  0.00  0.00    +0.000 A 
ATOM     20  C   UNL     1      46.331   3.846   7.870  0.00  0.00    +0.000 A 
BRANCH  15  22
ATOM     21  N   UNL     1      47.371   3.148   5.165  0.00  0.00    +0.000 N 
ATOM     22  C   UNL     1      47.541   2.371   6.275  0.00  0.00    +0.000 C 
ATOM     23  O   UNL     1      48.476   1.584   6.355  0.00  0.00    +0.000 OA
ATOM     24  H   UNL     1      48.085   3.079   4.449  0.00  0.00    +0.000 HD
ATOM     25  H   UNL     1      46.774   3.965   5.153  0.00  0.00    +0.000 HD
ENDBRANCH  15  22
ENDBRANCH  14  19
ENDBRANCH   1  14
TORSDOF 4
ENDMDL
MODEL 7
REMARK VINA RESULT:    -6.652      3.871      7.573
REMARK INTER + INTRA:          -8.687
REMARK INTER:                  -8.028
REMARK INTRA:                  -0.659
REMARK UNBOUND:                -0.480
REMARK  Name = 
REMARK  4 active torsions:
REMARK  status: ('A' for Active; 'I' for Inactive)
REMARK    1  A    between atoms: C_2  and  C_4
REMARK    2  A    between atoms: C_8  and  C_9
REMARK    3  A    between atoms: C_9  and  S_10
REMARK    4  A    between atoms: S_10  and  C_11
REMARK                            x       y       z     vdW  Elec       q    Type
REMARK                         _______ _______ _______ _____ _____    ______ ____
ROOT
ATOM      1  S   UNL     1      49.656   7.656  13.158  0.00  0.00    +0.000 S 
ENDROOT
BRANCH   1   2
ATOM      2  C   UNL     1      47.897   7.588  12.829  0.00  0.00    +0.000 A 
ATOM      3  C   UNL     1      47.153   8.744  13.058  0.00  0.00    +0.000 A 
ATOM      4  C   UNL     1      45.779   8.683  12.921  0.00  0.00    +0.000 A 
ATOM      5  N   UNL     1      45.106   7.562  12.595  0.00  0.00    +0.000 NA
ATOM      6  C   UNL     1      45.817   6.434  12.388  0.00  0.00    +0.000 A 
ATOM      7  N   UNL     1      45.153   5.210  12.201  0.00  0.00    +0.000 N 
ATOM      8  C   UNL     1      43.805   5.202  12.789  0.00  0.00    +0.000 C 
ATOM      9  C   UNL     1      43.327   3.753  12.858  0.00  0.00    +0.000 C 
ATOM     10  C   UNL     1      43.360   3.093  11.479  0.00  0.00    +0.000 C 
ATOM     11  C   UNL     1      44.719   3.278  10.797  0.00  0.00    +0.000 C 
ATOM     12  C   UNL     1      45.167   4.744  10.810  0.00  0.00    +0.000 C 
ATOM     13  C   UNL     1      47.213   6.424  12.479  0.00  0.00    +0.000 A 
ENDBRANCH   1   2
BRANCH   1  14
ATOM     14  C   UNL     1      49.739   8.094  14.931  0.00  0.00    +0.000 C 
BRANCH  14  19
ATOM     15  C   UNL     1      48.405   4.874  16.516  0.00  0.00    +0.000 A 
ATOM     16  C   UNL     1      49.466   4.517  17.356  0.00  0.00    +0.000 A 
ATOM     17  C   UNL     1      50.592   5.334  17.437  0.00  0.00    +0.000 A 
ATOM     18  C   UNL     1      50.674   6.498  16.668  0.00  0.00    +0.000 A 
ATOM     19  C   UNL     1      49.629   6.863  15.804  0.00  0.00    +0.000 A 
ATOM     20  C   UNL     1      48.493   6.037  15.737  0.00  0.00    +0.000 A 
BRANCH  15  22
ATOM     21  N   UNL     1      46.615   3.935  15.158  0.00  0.00    +0.000 N 
ATOM     22  C   UNL     1      47.194   4.021  16.391  0.00  0.00    +0.000 C 
ATOM     23  O   UNL     1      46.746   3.393  17.343  0.00  0.00    +0.000 OA
ATOM     24  H   UNL     1      45.841   3.286  15.064  0.00  0.00    +0.000 HD
ATOM     25  H   UNL     1      47.081   4.233  14.311  0.00  0.00    +0.000 HD
ENDBRANCH  15  22
ENDBRANCH  14  19
ENDBRANCH   1  14
TORSDOF 4
ENDMDL
MODEL 8
REMARK VINA RESULT:    -6.604      2.912      4.983
REMARK INTER + INTRA:          -8.628
REMARK INTER:                  -8.084
REMARK INTRA:                  -0.544
REMARK UNBOUND:                -0.480
REMARK  Name = 
REMARK  4 active torsions:
REMARK  status: ('A' for Active; 'I' for Inactive)
REMARK    1  A    between atoms: C_2  and  C_4
REMARK    2  A    between atoms: C_8  and  C_9
REMARK    3  A    between atoms: C_9  and  S_10
REMARK    4  A    between atoms: S_10  and  C_11
REMARK                            x       y       z     vdW  Elec       q    Type
REMARK                         _______ _______ _______ _____ _____    ______ ____
ROOT
ATOM      1  S   UNL     1      47.118   7.027  11.794  0.00  0.00    +0.000 S 
ENDROOT
BRANCH   1   2
ATOM      2  C   UNL     1      47.671   7.088  13.495  0.00  0.00    +0.000 A 
ATOM      3  C   UNL     1      48.235   8.279  13.947  0.00  0.00    +0.000 A 
ATOM      4  C   UNL     1      48.773   8.314  15.220  0.00  0.00    +0.000 A 
ATOM      5  N   UNL     1      48.803   7.255  16.052  0.00  0.00    +0.000 NA
ATOM      6  C   UNL     1      48.274   6.093  15.616  0.00  0.00    +0.000 A 
ATOM      7  N   UNL     1      48.421   4.923  16.382  0.00  0.00    +0.000 N 
ATOM      8  C   UNL     1      49.583   4.979  17.282  0.00  0.00    +0.000 C 
ATOM      9  C   UNL     1      49.863   3.562  17.780  0.00  0.00    +0.000 C 
ATOM     10  C   UNL     1      48.634   2.961  18.460  0.00  0.00    +0.000 C 
ATOM     11  C   UNL     1      47.385   3.086  17.582  0.00  0.00    +0.000 C 
ATOM     12  C   UNL     1      47.190   4.517  17.069  0.00  0.00    +0.000 C 
ATOM     13  C   UNL     1      47.685   5.987  14.352  0.00  0.00    +0.000 A 
ENDBRANCH   1   2
BRANCH   1  14
ATOM     14  C   UNL     1      45.298   7.126  11.934  0.00  0.00    +0.000 C 
BRANCH  14  19
ATOM     15  C   UNL     1      44.230   3.734  10.512  0.00  0.00    +0.000 A 
ATOM     16  C   UNL     1      43.571   3.168  11.610  0.00  0.00    +0.000 A 
ATOM     17  C   UNL     1      43.441   3.894  12.793  0.00  0.00    +0.000 A 
ATOM     18  C   UNL     1      43.983   5.179  12.892  0.00  0.00    +0.000 A 
ATOM     19  C   UNL     1      44.664   5.757  11.809  0.00  0.00    +0.000 A 
ATOM     20  C   UNL     1      44.781   5.020  10.618  0.00  0.00    +0.000 A 
BRANCH  15  22
ATOM     21  N   UNL     1      44.575   3.720   8.102  0.00  0.00    +0.000 N 
ATOM     22  C   UNL     1      44.402   2.986   9.240  0.00  0.00    +0.000 C 
ATOM     23  O   UNL     1      44.419   1.762   9.208  0.00  0.00    +0.000 OA
ATOM     24  H   UNL     1      44.774   3.202   7.254  0.00  0.00    +0.000 HD
ATOM     25  H   UNL     1      44.806   4.704   8.114  0.00  0.00    +0.000 HD
ENDBRANCH  15  22
ENDBRANCH  14  19
ENDBRANCH   1  14
TORSDOF 4
ENDMDL
MODEL 9
REMARK VINA RESULT:    -6.327      3.570      4.882
REMARK INTER + INTRA:          -8.286
REMARK INTER:                  -7.783
REMARK INTRA:                  -0.503
REMARK UNBOUND:                -0.480
REMARK  Name = 
REMARK  4 active torsions:
REMARK  status: ('A' for Active; 'I' for Inactive)
REMARK    1  A    between atoms: C_2  and  C_4
REMARK    2  A    between atoms: C_8  and  C_9
REMARK    3  A    between atoms: C_9  and  S_10
REMARK    4  A    between atoms: S_10  and  C_11
REMARK                            x       y       z     vdW  Elec       q    Type
REMARK                         _______ _______ _______ _____ _____    ______ ____
ROOT
ATOM      1  S   UNL     1      47.644   6.607  12.882  0.00  0.00    +0.000 S 
ENDROOT
BRANCH   1   2
ATOM      2  C   UNL     1      47.805   5.762  14.452  0.00  0.00    +0.000 A 
ATOM      3  C   UNL     1      47.128   4.554  14.607  0.00  0.00    +0.000 A 
ATOM      4  C   UNL     1      47.143   3.942  15.846  0.00  0.00    +0.000 A 
ATOM      5  N   UNL     1      47.762   4.453  16.928  0.00  0.00    +0.000 NA
ATOM      6  C   UNL     1      48.406   5.631  16.792  0.00  0.00    +0.000 A 
ATOM      7  N   UNL     1      48.930   6.280  17.923  0.00  0.00    +0.000 N 
ATOM      8  C   UNL     1      48.252   5.884  19.167  0.00  0.00    +0.000 C 
ATOM      9  C   UNL     1      48.631   6.890  20.252  0.00  0.00    +0.000 C 
ATOM     10  C   UNL     1      50.148   6.975  20.423  0.00  0.00    +0.000 C 
ATOM     11  C   UNL     1      50.855   7.196  19.083  0.00  0.00    +0.000 C 
ATOM     12  C   UNL     1      50.391   6.191  18.022  0.00  0.00    +0.000 C 
ATOM     13  C   UNL     1      48.459   6.296  15.562  0.00  0.00    +0.000 A 
ENDBRANCH   1   2
BRANCH   1  14
ATOM     14  C   UNL     1      45.877   7.071  12.828  0.00  0.00    +0.000 C 
BRANCH  14  19
ATOM     15  C   UNL     1      44.687   4.682  10.082  0.00  0.00    +0.000 A 
ATOM     16  C   UNL     1      43.610   4.048  10.712  0.00  0.00    +0.000 A 
ATOM     17  C   UNL     1      43.247   4.418  12.006  0.00  0.00    +0.000 A 
ATOM     18  C   UNL     1      43.968   5.406  12.683  0.00  0.00    +0.000 A 
ATOM     19  C   UNL     1      45.063   6.040  12.076  0.00  0.00    +0.000 A 
ATOM     20  C   UNL     1      45.414   5.666  10.767  0.00  0.00    +0.000 A 
BRANCH  15  22
ATOM     21  N   UNL     1      44.335   3.404   8.039  0.00  0.00    +0.000 N 
ATOM     22  C   UNL     1      45.113   4.305   8.709  0.00  0.00    +0.000 C 
ATOM     23  O   UNL     1      46.101   4.800   8.180  0.00  0.00    +0.000 OA
ATOM     24  H   UNL     1      44.586   3.218   7.075  0.00  0.00    +0.000 HD
ATOM     25  H   UNL     1      43.400   3.161   8.335  0.00  0.00    +0.000 HD
ENDBRANCH  15  22
ENDBRANCH  14  19
ENDBRANCH   1  14
TORSDOF 4
ENDMDL
