MODEL 1
REMARK VINA RESULT:    -7.780      0.000      0.000
REMARK INTER + INTRA:         -10.814
REMARK INTER:                 -10.281
REMARK INTRA:                  -0.532
REMARK UNBOUND:                -0.532
REMARK  Name = 
REMARK  7 active torsions:
REMARK  status: ('A' for Active; 'I' for Inactive)
REMARK    1  A    between atoms: C_1  and  C_2
REMARK    2  A    between atoms: C_5  and  C_6
REMARK    3  A    between atoms: C_6  and  C_7
REMARK    4  A    between atoms: C_7  and  O_8
REMARK    5  A    between atoms: O_8  and  C_9
REMARK    6  A    between atoms: C_13  and  C_14
REMARK    7  A    between atoms: C_14  and  O_16
REMARK                            x       y       z     vdW  Elec       q    Type
REMARK                         _______ _______ _______ _____ _____    ______ ____
ROOT
ATOM      1  O   UNL     1      43.715   3.049  10.308  0.00  0.00    +0.000 OA
ENDROOT
BRANCH   1   2
ATOM      2  C   UNL     1      44.674   3.057   9.333  0.00  0.00    +0.000 A 
ATOM      3  C   UNL     1      44.935   4.271   8.708  0.00  0.00    +0.000 A 
ATOM      4  N   UNL     1      45.857   4.442   7.728  0.00  0.00    +0.000 NA
ATOM      5  C   UNL     1      46.545   3.340   7.340  0.00  0.00    +0.000 A 
ATOM      6  C   UNL     1      46.326   2.076   7.872  0.00  0.00    +0.000 A 
ATOM      7  C   UNL     1      45.383   1.937   8.894  0.00  0.00    +0.000 A 
BRANCH   6   8
ATOM      8  C   UNL     1      47.144   0.955   7.368  0.00  0.00    +0.000 C 
ATOM      9  O   UNL     1      46.976  -0.191   7.733  0.00  0.00    +0.000 OA
BRANCH   8  10
ATOM     10  O   UNL     1      48.104   1.311   6.486  0.00  0.00    +0.000 OA
ATOM     11  H   UNL     1      48.196   0.753   5.695  0.00  0.00    +0.000 HD
ENDBRANCH   8  10
ENDBRANCH   6   8
ENDBRANCH   1   2
BRANCH   1  12
ATOM     12  C   UNL     1      43.454   4.317  10.923  0.00  0.00    +0.000 C 
BRANCH  12  13
ATOM     13  C   UNL     1      43.923   4.283  12.378  0.00  0.00    +0.000 C 
BRANCH  13  18
ATOM     14  C   UNL     1      49.024   7.026  13.040  0.00  0.00    +0.000 C 
ATOM     15  C   UNL     1      47.712   6.314  12.878  0.00  0.00    +0.000 A 
ATOM     16  C   UNL     1      47.281   5.374  13.819  0.00  0.00    +0.000 A 
ATOM     17  C   UNL     1      46.060   4.712  13.654  0.00  0.00    +0.000 A 
ATOM     18  C   UNL     1      45.253   4.975  12.540  0.00  0.00    +0.000 A 
ATOM     19  C   UNL     1      45.683   5.923  11.603  0.00  0.00    +0.000 A 
ATOM     20  C   UNL     1      46.903   6.586  11.770  0.00  0.00    +0.000 A 
ENDBRANCH  13  18
ENDBRANCH  12  13
ENDBRANCH   1  12
TORSDOF 6
ENDMDL
MODEL 2
REMARK VINA RESULT:    -7.670      2.885      5.984
REMARK INTER + INTRA:         -10.668
REMARK INTER:                 -10.084
REMARK INTRA:                  -0.584
REMARK UNBOUND:                -0.532
REMARK  Name = 
REMARK  7 active torsions:
REMARK  status: ('A' for Active; 'I' for Inactive)
REMARK    1  A    between atoms: C_1  and  C_2
REMARK    2  A    between atoms: C_5  and  C_6
REMARK    3  A    between atoms: C_6  and  C_7
REMARK    4  A    between atoms: C_7  and  O_8
REMARK    5  A    between atoms: O_8  and  C_9
REMARK    6  A    between atoms: C_13  and  C_14
REMARK    7  A    between atoms: C_14  and  O_16
REMARK                            x       y       z     vdW  Elec       q    Type
REMARK                         _______ _______ _______ _____ _____    ______ ____
ROOT
ATOM      1  O   UNL     1      43.590   5.055  11.624  0.00  0.00    +0.000 OA
ENDROOT
BRANCH   1   2
ATOM      2  C   UNL     1      44.809   5.262  12.209  0.00  0.00    +0.000 A 
ATOM      3  C   UNL     1      45.631   6.229  11.642  0.00  0.00    +0.000 A 
ATOM      4  N   UNL     1      46.863   6.552  12.108  0.00  0.00    +0.000 NA
ATOM      5  C   UNL     1      47.305   5.863  13.188  0.00  0.00    +0.000 A 
ATOM      6  C   UNL     1      46.578   4.849  13.799  0.00  0.00    +0.000 A 
ATOM      7  C   UNL     1      45.303   4.554  13.306  0.00  0.00    +0.000 A 
BRANCH   6   8
ATOM      8  C   UNL     1      47.168   4.176  14.973  0.00  0.00    +0.000 C 
ATOM      9  O   UNL     1      47.632   3.055  14.917  0.00  0.00    +0.000 OA
BRANCH   8  10
ATOM     10  O   UNL     1      47.130   4.898  16.114  0.00  0.00    +0.000 OA
ATOM     11  H   UNL     1      47.704   4.597  16.838  0.00  0.00    +0.000 HD
ENDBRANCH   8  10
ENDBRANCH   6   8
ENDBRANCH   1   2
BRANCH   1  12
ATOM     12  C   UNL     1      43.630   4.621  10.258  0.00  0.00    +0.000 C 
BRANCH  12  13
ATOM     13  C   UNL     1      44.081   3.162  10.202  0.00  0.00    +0.000 C 
BRANCH  13  18
ATOM     14  C   UNL     1      47.896   2.298   5.879  0.00  0.00    +0.000 C 
ATOM     15  C   UNL     1      46.913   2.511   6.994  0.00  0.00    +0.000 A 
ATOM     16  C   UNL     1      46.465   1.440   7.774  0.00  0.00    +0.000 A 
ATOM     17  C   UNL     1      45.544   1.649   8.805  0.00  0.00    +0.000 A 
ATOM     18  C   UNL     1      45.052   2.932   9.070  0.00  0.00    +0.000 A 
ATOM     19  C   UNL     1      45.508   4.005   8.294  0.00  0.00    +0.000 A 
ATOM     20  C   UNL     1      46.430   3.796   7.263  0.00  0.00    +0.000 A 
ENDBRANCH  13  18
ENDBRANCH  12  13
ENDBRANCH   1  12
TORSDOF 6
ENDMDL
MODEL 3
REMARK VINA RESULT:    -7.258      2.974      6.052
REMARK INTER + INTRA:         -10.124
REMARK INTER:                  -9.599
REMARK INTRA:                  -0.525
REMARK UNBOUND:                -0.532
REMARK  Name = 
REMARK  7 active torsions:
REMARK  status: ('A' for Active; 'I' for Inactive)
REMARK    1  A    between atoms: C_1  and  C_2
REMARK    2  A    between atoms: C_5  and  C_6
REMARK    3  A    between atoms: C_6  and  C_7
REMARK    4  A    between atoms: C_7  and  O_8
REMARK    5  A    between atoms: O_8  and  C_9
REMARK    6  A    between atoms: C_13  and  C_14
REMARK    7  A    between atoms: C_14  and  O_16
REMARK                            x       y       z     vdW  Elec       q    Type
REMARK                         _______ _______ _______ _____ _____    ______ ____
ROOT
ATOM      1  O   UNL     1      43.560   5.170  11.360  0.00  0.00    +0.000 OA
ENDROOT
BRANCH   1   2
ATOM      2  C   UNL     1      44.728   5.226  12.070  0.00  0.00    +0.000 A 
ATOM      3  C   UNL     1      44.826   4.417  13.197  0.00  0.00    +0.000 A 
ATOM      4  N   UNL     1      45.916   4.357  14.001  0.00  0.00    +0.000 NA
ATOM      5  C   UNL     1      46.960   5.157  13.671  0.00  0.00    +0.000 A 
ATOM      6  C   UNL     1      46.943   6.031  12.592  0.00  0.00    +0.000 A 
ATOM      7  C   UNL     1      45.810   6.055  11.772  0.00  0.00    +0.000 A 
BRANCH   6   8
ATOM      8  C   UNL     1      48.145   6.849  12.335  0.00  0.00    +0.000 C 
ATOM      9  O   UNL     1      48.105   7.889  11.710  0.00  0.00    +0.000 OA
BRANCH   8  10
ATOM     10  O   UNL     1      49.291   6.335  12.833  0.00  0.00    +0.000 OA
ATOM     11  H   UNL     1      49.708   5.624  12.318  0.00  0.00    +0.000 HD
ENDBRANCH   8  10
ENDBRANCH   6   8
ENDBRANCH   1   2
BRANCH   1  12
ATOM     12  C   UNL     1      43.674   4.642  10.032  0.00  0.00    +0.000 C 
BRANCH  12  13
ATOM     13  C   UNL     1      44.226   3.218  10.096  0.00  0.00    +0.000 C 
BRANCH  13  18
ATOM     14  C   UNL     1      47.976   2.210   5.748  0.00  0.00    +0.000 C 
ATOM     15  C   UNL     1      47.011   2.479   6.866  0.00  0.00    +0.000 A 
ATOM     16  C   UNL     1      46.547   3.774   7.121  0.00  0.00    +0.000 A 
ATOM     17  C   UNL     1      45.653   4.014   8.169  0.00  0.00    +0.000 A 
ATOM     18  C   UNL     1      45.212   2.964   8.984  0.00  0.00    +0.000 A 
ATOM     19  C   UNL     1      45.672   1.667   8.721  0.00  0.00    +0.000 A 
ATOM     20  C   UNL     1      46.564   1.427   7.672  0.00  0.00    +0.000 A 
ENDBRANCH  13  18
ENDBRANCH  12  13
ENDBRANCH   1  12
TORSDOF 6
ENDMDL
MODEL 4
REMARK VINA RESULT:    -7.074      3.086      6.256
REMARK INTER + INTRA:          -9.881
REMARK INTER:                  -9.338
REMARK INTRA:                  -0.544
REMARK UNBOUND:                -0.532
REMARK  Name = 
REMARK  7 active torsions:
REMARK  status: ('A' for Active; 'I' for Inactive)
REMARK    1  A    between atoms: C_1  and  C_2
REMARK    2  A    between atoms: C_5  and  C_6
REMARK    3  A    between atoms: C_6  and  C_7
REMARK    4  A    between atoms: C_7  and  O_8
REMARK    5  A    between atoms: O_8  and  C_9
REMARK    6  A    between atoms: C_13  and  C_14
REMARK    7  A    between atoms: C_14  and  O_16
REMARK                            x       y       z     vdW  Elec       q    Type
REMARK                         _______ _______ _______ _____ _____    ______ ____
ROOT
ATOM      1  O   UNL     1      43.928   3.891  13.064  0.00  0.00    +0.000 OA
ENDROOT
BRANCH   1   2
ATOM      2  C   UNL     1      44.978   4.768  13.061  0.00  0.00    +0.000 A 
ATOM      3  C   UNL     1      46.241   4.248  13.324  0.00  0.00    +0.000 A 
ATOM      4  N   UNL     1      47.378   4.986  13.352  0.00  0.00    +0.000 NA
ATOM      5  C   UNL     1      47.247   6.315  13.121  0.00  0.00    +0.000 A 
ATOM      6  C   UNL     1      46.027   6.936  12.893  0.00  0.00    +0.000 A 
ATOM      7  C   UNL     1      44.875   6.144  12.851  0.00  0.00    +0.000 A 
BRANCH   6   8
ATOM      8  C   UNL     1      46.017   8.392  12.651  0.00  0.00    +0.000 C 
ATOM      9  O   UNL     1      47.010   9.003  12.311  0.00  0.00    +0.000 OA
BRANCH   8  10
ATOM     10  O   UNL     1      44.823   8.989  12.859  0.00  0.00    +0.000 OA
ATOM     11  H   UNL     1      44.845   9.915  13.153  0.00  0.00    +0.000 HD
ENDBRANCH   8  10
ENDBRANCH   6   8
ENDBRANCH   1   2
BRANCH   1  12
ATOM     12  C   UNL     1      43.878   2.989  11.951  0.00  0.00    +0.000 C 
BRANCH  12  13
ATOM     13  C   UNL     1      43.636   3.781  10.666  0.00  0.00    +0.000 C 
BRANCH  13  18
ATOM     14  C   UNL     1      47.428   2.212   6.525  0.00  0.00    +0.000 C 
ATOM     15  C   UNL     1      46.450   2.607   7.593  0.00  0.00    +0.000 A 
ATOM     16  C   UNL     1      45.846   1.644   8.408  0.00  0.00    +0.000 A 
ATOM     17  C   UNL     1      44.930   2.022   9.395  0.00  0.00    +0.000 A 
ATOM     18  C   UNL     1      44.600   3.370   9.581  0.00  0.00    +0.000 A 
ATOM     19  C   UNL     1      45.214   4.334   8.770  0.00  0.00    +0.000 A 
ATOM     20  C   UNL     1      46.130   3.955   7.784  0.00  0.00    +0.000 A 
ENDBRANCH  13  18
ENDBRANCH  12  13
ENDBRANCH   1  12
TORSDOF 6
ENDMDL
MODEL 5
REMARK VINA RESULT:    -6.916      1.433      1.801
REMARK INTER + INTRA:          -9.672
REMARK INTER:                  -9.135
REMARK INTRA:                  -0.536
REMARK UNBOUND:                -0.532
REMARK  Name = 
REMARK  7 active torsions:
REMARK  status: ('A' for Active; 'I' for Inactive)
REMARK    1  A    between atoms: C_1  and  C_2
REMARK    2  A    between atoms: C_5  and  C_6
REMARK    3  A    between atoms: C_6  and  C_7
REMARK    4  A    between atoms: C_7  and  O_8
REMARK    5  A    between atoms: O_8  and  C_9
REMARK    6  A    between atoms: C_13  and  C_14
REMARK    7  A    between atoms: C_14  and  O_16
REMARK                            x       y       z     vdW  Elec       q    Type
REMARK                         _______ _______ _______ _____ _____    ______ ____
ROOT
ATOM      1  O   UNL     1      44.007   4.275   9.259  0.00  0.00    +0.000 OA
ENDROOT
BRANCH   1   2
ATOM      2  C   UNL     1      44.860   3.363   8.699  0.00  0.00    +0.000 A 
ATOM      3  C   UNL     1      44.859   2.080   9.236  0.00  0.00    +0.000 A 
ATOM      4  N   UNL     1      45.640   1.066   8.790  0.00  0.00    +0.000 NA
ATOM      5  C   UNL     1      46.479   1.351   7.764  0.00  0.00    +0.000 A 
ATOM      6  C   UNL     1      46.585   2.610   7.189  0.00  0.00    +0.000 A 
ATOM      7  C   UNL     1      45.751   3.629   7.659  0.00  0.00    +0.000 A 
BRANCH   6   8
ATOM      8  C   UNL     1      47.534   2.792   6.073  0.00  0.00    +0.000 C 
ATOM      9  O   UNL     1      47.172   3.072   4.948  0.00  0.00    +0.000 OA
BRANCH   8  10
ATOM     10  O   UNL     1      48.831   2.600   6.400  0.00  0.00    +0.000 OA
ATOM     11  H   UNL     1      49.393   3.393   6.430  0.00  0.00    +0.000 HD
ENDBRANCH   8  10
ENDBRANCH   6   8
ENDBRANCH   1   2
BRANCH   1  12
ATOM     12  C   UNL     1      43.617   4.002  10.611  0.00  0.00    +0.000 C 
BRANCH  12  13
ATOM     13  C   UNL     1      43.603   5.306  11.409  0.00  0.00    +0.000 C 
BRANCH  13  18
ATOM     14  C   UNL     1      48.918   6.772  13.304  0.00  0.00    +0.000 C 
ATOM     15  C   UNL     1      47.548   6.389  12.824  0.00  0.00    +0.000 A 
ATOM     16  C   UNL     1      46.735   5.531  13.573  0.00  0.00    +0.000 A 
ATOM     17  C   UNL     1      45.464   5.175  13.112  0.00  0.00    +0.000 A 
ATOM     18  C   UNL     1      44.986   5.667  11.891  0.00  0.00    +0.000 A 
ATOM     19  C   UNL     1      45.797   6.532  11.147  0.00  0.00    +0.000 A 
ATOM     20  C   UNL     1      47.068   6.889  11.609  0.00  0.00    +0.000 A 
ENDBRANCH  13  18
ENDBRANCH  12  13
ENDBRANCH   1  12
TORSDOF 6
ENDMDL
MODEL 6
REMARK VINA RESULT:    -6.711      3.112      6.670
REMARK INTER + INTRA:          -9.401
REMARK INTER:                  -8.939
REMARK INTRA:                  -0.462
REMARK UNBOUND:                -0.532
REMARK  Name = 
REMARK  7 active torsions:
REMARK  status: ('A' for Active; 'I' for Inactive)
REMARK    1  A    between atoms: C_1  and  C_2
REMARK    2  A    between atoms: C_5  and  C_6
REMARK    3  A    between atoms: C_6  and  C_7
REMARK    4  A    between atoms: C_7  and  O_8
REMARK    5  A    between atoms: O_8  and  C_9
REMARK    6  A    between atoms: C_13  and  C_14
REMARK    7  A    between atoms: C_14  and  O_16
REMARK                            x       y       z     vdW  Elec       q    Type
REMARK                         _______ _______ _______ _____ _____    ______ ____
ROOT
ATOM      1  O   UNL     1      44.776   4.454  11.890  0.00  0.00    +0.000 OA
ENDROOT
BRANCH   1   2
ATOM      2  C   UNL     1      45.241   5.714  12.155  0.00  0.00    +0.000 A 
ATOM      3  C   UNL     1      46.369   5.818  12.963  0.00  0.00    +0.000 A 
ATOM      4  N   UNL     1      46.951   6.991  13.312  0.00  0.00    +0.000 NA
ATOM      5  C   UNL     1      46.369   8.122  12.842  0.00  0.00    +0.000 A 
ATOM      6  C   UNL     1      45.218   8.125  12.066  0.00  0.00    +0.000 A 
ATOM      7  C   UNL     1      44.653   6.897  11.708  0.00  0.00    +0.000 A 
BRANCH   6   8
ATOM      8  C   UNL     1      44.683   9.425  11.613  0.00  0.00    +0.000 C 
ATOM      9  O   UNL     1      44.067   9.550  10.574  0.00  0.00    +0.000 OA
BRANCH   8  10
ATOM     10  O   UNL     1      44.954  10.462  12.435  0.00  0.00    +0.000 OA
ATOM     11  H   UNL     1      45.175  11.308  12.010  0.00  0.00    +0.000 HD
ENDBRANCH   8  10
ENDBRANCH   6   8
ENDBRANCH   1   2
BRANCH   1  12
ATOM     12  C   UNL     1      44.035   4.317  10.671  0.00  0.00    +0.000 C 
BRANCH  12  13
ATOM     13  C   UNL     1      44.130   2.872  10.179  0.00  0.00    +0.000 C 
BRANCH  13  18
ATOM     14  C   UNL     1      47.878   2.435   5.735  0.00  0.00    +0.000 C 
ATOM     15  C   UNL     1      46.913   2.538   6.881  0.00  0.00    +0.000 A 
ATOM     16  C   UNL     1      46.573   1.413   7.639  0.00  0.00    +0.000 A 
ATOM     17  C   UNL     1      45.668   1.520   8.700  0.00  0.00    +0.000 A 
ATOM     18  C   UNL     1      45.084   2.752   9.017  0.00  0.00    +0.000 A 
ATOM     19  C   UNL     1      45.433   3.879   8.261  0.00  0.00    +0.000 A 
ATOM     20  C   UNL     1      46.339   3.772   7.202  0.00  0.00    +0.000 A 
ENDBRANCH  13  18
ENDBRANCH  12  13
ENDBRANCH   1  12
TORSDOF 6
ENDMDL
MODEL 7
REMARK VINA RESULT:    -6.447      3.437      6.228
REMARK INTER + INTRA:          -9.053
REMARK INTER:                  -8.495
REMARK INTRA:                  -0.558
REMARK UNBOUND:                -0.532
REMARK  Name = 
REMARK  7 active torsions:
REMARK  status: ('A' for Active; 'I' for Inactive)
REMARK    1  A    between atoms: C_1  and  C_2
REMARK    2  A    between atoms: C_5  and  C_6
REMARK    3  A    between atoms: C_6  and  C_7
REMARK    4  A    between atoms: C_7  and  O_8
REMARK    5  A    between atoms: O_8  and  C_9
REMARK    6  A    between atoms: C_13  and  C_14
REMARK    7  A    between atoms: C_14  and  O_16
REMARK                            x       y       z     vdW  Elec       q    Type
REMARK                         _______ _______ _______ _____ _____    ______ ____
ROOT
ATOM      1  O   UNL     1      44.200   6.696  11.450  0.00  0.00    +0.000 OA
ENDROOT
BRANCH   1   2
ATOM      2  C   UNL     1      45.285   7.484  11.724  0.00  0.00    +0.000 A 
ATOM      3  C   UNL     1      45.061   8.851  11.845  0.00  0.00    +0.000 A 
ATOM      4  N   UNL     1      46.028   9.761  12.118  0.00  0.00    +0.000 NA
ATOM      5  C   UNL     1      47.289   9.284  12.263  0.00  0.00    +0.000 A 
ATOM      6  C   UNL     1      47.621   7.944  12.118  0.00  0.00    +0.000 A 
ATOM      7  C   UNL     1      46.597   7.028  11.856  0.00  0.00    +0.000 A 
BRANCH   6   8
ATOM      8  C   UNL     1      49.032   7.548  12.304  0.00  0.00    +0.000 C 
ATOM      9  O   UNL     1      49.958   8.274  12.003  0.00  0.00    +0.000 OA
BRANCH   8  10
ATOM     10  O   UNL     1      49.205   6.311  12.815  0.00  0.00    +0.000 OA
ATOM     11  H   UNL     1      49.925   5.779  12.434  0.00  0.00    +0.000 HD
ENDBRANCH   8  10
ENDBRANCH   6   8
ENDBRANCH   1   2
BRANCH   1  12
ATOM     12  C   UNL     1      44.431   5.283  11.535  0.00  0.00    +0.000 C 
BRANCH  12  13
ATOM     13  C   UNL     1      43.649   4.573  10.430  0.00  0.00    +0.000 C 
BRANCH  13  18
ATOM     14  C   UNL     1      47.281   1.690   6.897  0.00  0.00    +0.000 C 
ATOM     15  C   UNL     1      46.342   2.424   7.809  0.00  0.00    +0.000 A 
ATOM     16  C   UNL     1      45.487   1.731   8.672  0.00  0.00    +0.000 A 
ATOM     17  C   UNL     1      44.611   2.425   9.513  0.00  0.00    +0.000 A 
ATOM     18  C   UNL     1      44.572   3.825   9.502  0.00  0.00    +0.000 A 
ATOM     19  C   UNL     1      45.436   4.517   8.643  0.00  0.00    +0.000 A 
ATOM     20  C   UNL     1      46.312   3.822   7.803  0.00  0.00    +0.000 A 
ENDBRANCH  13  18
ENDBRANCH  12  13
ENDBRANCH   1  12
TORSDOF 6
ENDMDL
MODEL 8
REMARK VINA RESULT:    -6.226      4.164      5.972
REMARK INTER + INTRA:          -8.760
REMARK INTER:                  -8.422
REMARK INTRA:                  -0.338
REMARK UNBOUND:                -0.532
REMARK  Name = 
REMARK  7 active torsions:
REMARK  status: ('A' for Active; 'I' for Inactive)
REMARK    1  A    between atoms: C_1  and  C_2
REMARK    2  A    between atoms: C_5  and  C_6
REMARK    3  A    between atoms: C_6  and  C_7
REMARK    4  A    between atoms: C_7  and  O_8
REMARK    5  A    between atoms: O_8  and  C_9
REMARK    6  A    between atoms: C_13  and  C_14
REMARK    7  A    between atoms: C_14  and  O_16
REMARK                            x       y       z     vdW  Elec       q    Type
REMARK                         _______ _______ _______ _____ _____    ______ ____
ROOT
ATOM      1  O   UNL     1      47.325   3.435  14.560  0.00  0.00    +0.000 OA
ENDROOT
BRANCH   1   2
ATOM      2  C   UNL     1      46.602   3.940  13.514  0.00  0.00    +0.000 A 
ATOM      3  C   UNL     1      46.775   5.286  13.213  0.00  0.00    +0.000 A 
ATOM      4  N   UNL     1      46.136   5.931  12.206  0.00  0.00    +0.000 NA
ATOM      5  C   UNL     1      45.265   5.198  11.470  0.00  0.00    +0.000 A 
ATOM      6  C   UNL     1      44.990   3.860  11.719  0.00  0.00    +0.000 A 
ATOM      7  C   UNL     1      45.681   3.219  12.752  0.00  0.00    +0.000 A 
BRANCH   6   8
ATOM      8  C   UNL     1      44.023   3.170  10.842  0.00  0.00    +0.000 C 
ATOM      9  O   UNL     1      44.282   2.872   9.694  0.00  0.00    +0.000 OA
BRANCH   8  10
ATOM     10  O   UNL     1      42.826   2.918  11.414  0.00  0.00    +0.000 OA
ATOM     11  H   UNL     1      42.798   2.194  12.063  0.00  0.00    +0.000 HD
ENDBRANCH   8  10
ENDBRANCH   6   8
ENDBRANCH   1   2
BRANCH   1  12
ATOM     12  C   UNL     1      47.312   4.227  15.755  0.00  0.00    +0.000 C 
BRANCH  12  13
ATOM     13  C   UNL     1      47.588   3.331  16.962  0.00  0.00    +0.000 C 
BRANCH  13  18
ATOM     14  C   UNL     1      53.297   2.739  17.983  0.00  0.00    +0.000 C 
ATOM     15  C   UNL     1      51.826   2.882  17.717  0.00  0.00    +0.000 A 
ATOM     16  C   UNL     1      51.075   1.809  17.227  0.00  0.00    +0.000 A 
ATOM     17  C   UNL     1      49.708   1.956  16.975  0.00  0.00    +0.000 A 
ATOM     18  C   UNL     1      49.069   3.181  17.205  0.00  0.00    +0.000 A 
ATOM     19  C   UNL     1      49.821   4.252  17.704  0.00  0.00    +0.000 A 
ATOM     20  C   UNL     1      51.189   4.104  17.956  0.00  0.00    +0.000 A 
ENDBRANCH  13  18
ENDBRANCH  12  13
ENDBRANCH   1  12
TORSDOF 6
ENDMDL
MODEL 9
REMARK VINA RESULT:    -5.952      2.261      3.406
REMARK INTER + INTRA:          -8.398
REMARK INTER:                  -7.839
REMARK INTRA:                  -0.558
REMARK UNBOUND:                -0.532
REMARK  Name = 
REMARK  7 active torsions:
REMARK  status: ('A' for Active; 'I' for Inactive)
REMARK    1  A    between atoms: C_1  and  C_2
REMARK    2  A    between atoms: C_5  and  C_6
REMARK    3  A    between atoms: C_6  and  C_7
REMARK    4  A    between atoms: C_7  and  O_8
REMARK    5  A    between atoms: O_8  and  C_9
REMARK    6  A    between atoms: C_13  and  C_14
REMARK    7  A    between atoms: C_14  and  O_16
REMARK                            x       y       z     vdW  Elec       q    Type
REMARK                         _______ _______ _______ _____ _____    ______ ____
ROOT
ATOM      1  O   UNL     1      44.497   6.526  11.227  0.00  0.00    +0.000 OA
ENDROOT
BRANCH   1   2
ATOM      2  C   UNL     1      44.552   5.325  10.573  0.00  0.00    +0.000 A 
ATOM      3  C   UNL     1      43.737   4.304  11.050  0.00  0.00    +0.000 A 
ATOM      4  N   UNL     1      43.675   3.062  10.509  0.00  0.00    +0.000 NA
ATOM      5  C   UNL     1      44.479   2.822   9.444  0.00  0.00    +0.000 A 
ATOM      6  C   UNL     1      45.358   3.760   8.922  0.00  0.00    +0.000 A 
ATOM      7  C   UNL     1      45.384   5.038   9.491  0.00  0.00    +0.000 A 
BRANCH   6   8
ATOM      8  C   UNL     1      46.179   3.377   7.756  0.00  0.00    +0.000 C 
ATOM      9  O   UNL     1      46.439   2.220   7.494  0.00  0.00    +0.000 OA
BRANCH   8  10
ATOM     10  O   UNL     1      46.633   4.416   7.022  0.00  0.00    +0.000 OA
ATOM     11  H   UNL     1      47.547   4.352   6.697  0.00  0.00    +0.000 HD
ENDBRANCH   8  10
ENDBRANCH   6   8
ENDBRANCH   1   2
BRANCH   1  12
ATOM     12  C   UNL     1      45.158   6.563  12.499  0.00  0.00    +0.000 C 
BRANCH  12  13
ATOM     13  C   UNL     1      45.593   7.996  12.803  0.00  0.00    +0.000 C 
BRANCH  13  18
ATOM     14  C   UNL     1      51.096   8.901  11.105  0.00  0.00    +0.000 C 
ATOM     15  C   UNL     1      49.678   8.677  11.543  0.00  0.00    +0.000 A 
ATOM     16  C   UNL     1      48.809   9.754  11.747  0.00  0.00    +0.000 A 
ATOM     17  C   UNL     1      47.492   9.535  12.162  0.00  0.00    +0.000 A 
ATOM     18  C   UNL     1      47.022   8.234  12.385  0.00  0.00    +0.000 A 
ATOM     19  C   UNL     1      47.892   7.157  12.171  0.00  0.00    +0.000 A 
ATOM     20  C   UNL     1      49.208   7.377  11.755  0.00  0.00    +0.000 A 
ENDBRANCH  13  18
ENDBRANCH  12  13
ENDBRANCH   1  12
TORSDOF 6
ENDMDL
