MODEL 1
REMARK VINA RESULT:    -8.353      0.000      0.000
REMARK INTER + INTRA:         -13.843
REMARK INTER:                 -12.260
REMARK INTRA:                  -1.583
REMARK UNBOUND:                -1.583
REMARK  Name = 
REMARK  8 active torsions:
REMARK  status: ('A' for Active; 'I' for Inactive)
REMARK    1  A    between atoms: C_2  and  C_20
REMARK    2  A    between atoms: N_3  and  C_4
REMARK    3  A    between atoms: C_4  and  C_5
REMARK    4  A    between atoms: C_8  and  C_9
REMARK    5  A    between atoms: C_9  and  C_10
REMARK    6  A    between atoms: C_10  and  N_11
REMARK    7  A    between atoms: N_11  and  C_12
REMARK    8  A    between atoms: C_27  and  N_28
REMARK                            x       y       z     vdW  Elec       q    Type
REMARK                         _______ _______ _______ _____ _____    ______ ____
ROOT
ATOM      1  O   UNL     1      49.585   6.856  13.672  0.00  0.00    +0.000 OA
ATOM      2  C   UNL     1      48.832   6.951  14.633  0.00  0.00    +0.000 C 
ATOM      3  N   UNL     1      47.582   7.524  14.585  0.00  0.00    +0.000 N 
ATOM      4  H   UNL     1      47.135   7.768  15.456  0.00  0.00    +0.000 HD
ENDROOT
BRANCH   2   5
ATOM      5  C   UNL     1      49.180   6.392  15.936  0.00  0.00    +0.000 A 
ATOM      6  C   UNL     1      50.071   6.975  16.830  0.00  0.00    +0.000 A 
ATOM      7  N   UNL     1      50.041   6.269  17.998  0.00  0.00    +0.000 N 
ATOM      8  C   UNL     1      49.168   5.228  17.881  0.00  0.00    +0.000 A 
ATOM      9  N   UNL     1      48.906   4.365  18.880  0.00  0.00    +0.000 NA
ATOM     10  C   UNL     1      48.013   3.406  18.560  0.00  0.00    +0.000 A 
ATOM     11  C   UNL     1      47.407   3.257  17.328  0.00  0.00    +0.000 A 
ATOM     12  C   UNL     1      47.733   4.187  16.339  0.00  0.00    +0.000 A 
ATOM     13  C   UNL     1      48.629   5.241  16.596  0.00  0.00    +0.000 A 
ATOM     14  H   UNL     1      50.547   6.481  18.846  0.00  0.00    +0.000 HD
BRANCH  12  15
ATOM     15  N   UNL     1      47.202   3.994  15.009  0.00  0.00    +0.000 N 
ATOM     16  O   UNL     1      46.146   4.584  14.738  0.00  0.00    +0.000 OA
ATOM     17  O   UNL     1      47.772   3.163  14.292  0.00  0.00    +0.000 OA
ENDBRANCH  12  15
ENDBRANCH   2   5
BRANCH   3  18
ATOM     18  C   UNL     1      47.058   8.103  13.375  0.00  0.00    +0.000 C 
BRANCH  18  19
ATOM     19  C   UNL     1      46.130   7.155  12.672  0.00  0.00    +0.000 A 
ATOM     20  C   UNL     1      46.659   6.177  11.826  0.00  0.00    +0.000 A 
ATOM     21  C   UNL     1      45.820   5.281  11.171  0.00  0.00    +0.000 A 
ATOM     22  C   UNL     1      44.431   5.334  11.345  0.00  0.00    +0.000 A 
ATOM     23  C   UNL     1      43.899   6.345  12.158  0.00  0.00    +0.000 A 
ATOM     24  C   UNL     1      44.740   7.246  12.817  0.00  0.00    +0.000 A 
BRANCH  22  25
ATOM     25  C   UNL     1      43.498   4.371  10.639  0.00  0.00    +0.000 C 
BRANCH  25  26
ATOM     26  C   UNL     1      44.163   3.325   9.723  0.00  0.00    +0.000 C 
BRANCH  26  27
ATOM     27  N   UNL     1      44.424   3.830   8.372  0.00  0.00    +0.000 NA
ATOM     28  H   UNL     1      44.858   4.752   8.425  0.00  0.00    +0.000 HD
BRANCH  27  29
ATOM     29  C   UNL     1      45.240   2.931   7.546  0.00  0.00    +0.000 C 
ATOM     30  C   UNL     1      45.804   1.821   8.455  0.00  0.00    +0.000 C 
ATOM     31  C   UNL     1      46.727   0.871   7.691  0.00  0.00    +0.000 C 
ATOM     32  C   UNL     1      47.852   1.622   6.988  0.00  0.00    +0.000 C 
ATOM     33  C   UNL     1      47.294   2.696   6.065  0.00  0.00    +0.000 C 
ATOM     34  C   UNL     1      46.387   3.662   6.823  0.00  0.00    +0.000 C 
ENDBRANCH  27  29
ENDBRANCH  26  27
ENDBRANCH  25  26
ENDBRANCH  22  25
ENDBRANCH  18  19
ENDBRANCH   3  18
TORSDOF 8
ENDMDL
MODEL 2
REMARK VINA RESULT:    -8.037      1.788      2.310
REMARK INTER + INTRA:         -13.379
REMARK INTER:                 -12.103
REMARK INTRA:                  -1.276
REMARK UNBOUND:                -1.583
REMARK  Name = 
REMARK  8 active torsions:
REMARK  status: ('A' for Active; 'I' for Inactive)
REMARK    1  A    between atoms: C_2  and  C_20
REMARK    2  A    between atoms: N_3  and  C_4
REMARK    3  A    between atoms: C_4  and  C_5
REMARK    4  A    between atoms: C_8  and  C_9
REMARK    5  A    between atoms: C_9  and  C_10
REMARK    6  A    between atoms: C_10  and  N_11
REMARK    7  A    between atoms: N_11  and  C_12
REMARK    8  A    between atoms: C_27  and  N_28
REMARK                            x       y       z     vdW  Elec       q    Type
REMARK                         _______ _______ _______ _____ _____    ______ ____
ROOT
ATOM      1  O   UNL     1      50.208   6.554  15.436  0.00  0.00    +0.000 OA
ATOM      2  C   UNL     1      49.145   6.965  15.883  0.00  0.00    +0.000 C 
ATOM      3  N   UNL     1      48.051   7.281  15.111  0.00  0.00    +0.000 N 
ATOM      4  H   UNL     1      47.312   7.825  15.531  0.00  0.00    +0.000 HD
ENDROOT
BRANCH   2   5
ATOM      5  C   UNL     1      48.920   7.101  17.318  0.00  0.00    +0.000 A 
ATOM      6  C   UNL     1      48.617   8.297  17.958  0.00  0.00    +0.000 A 
ATOM      7  N   UNL     1      48.324   8.031  19.265  0.00  0.00    +0.000 N 
ATOM      8  C   UNL     1      48.450   6.693  19.499  0.00  0.00    +0.000 A 
ATOM      9  N   UNL     1      48.204   6.124  20.693  0.00  0.00    +0.000 NA
ATOM     10  C   UNL     1      48.389   4.787  20.714  0.00  0.00    +0.000 A 
ATOM     11  C   UNL     1      48.815   4.022  19.647  0.00  0.00    +0.000 A 
ATOM     12  C   UNL     1      49.056   4.684  18.441  0.00  0.00    +0.000 A 
ATOM     13  C   UNL     1      48.856   6.072  18.319  0.00  0.00    +0.000 A 
ATOM     14  H   UNL     1      48.023   8.694  19.964  0.00  0.00    +0.000 HD
BRANCH  12  15
ATOM     15  N   UNL     1      49.608   3.931  17.338  0.00  0.00    +0.000 N 
ATOM     16  O   UNL     1      50.843   3.911  17.239  0.00  0.00    +0.000 OA
ATOM     17  O   UNL     1      48.806   3.474  16.514  0.00  0.00    +0.000 OA
ENDBRANCH  12  15
ENDBRANCH   2   5
BRANCH   3  18
ATOM     18  C   UNL     1      48.079   7.180  13.675  0.00  0.00    +0.000 C 
BRANCH  18  19
ATOM     19  C   UNL     1      47.109   6.148  13.179  0.00  0.00    +0.000 A 
ATOM     20  C   UNL     1      47.175   4.846  13.682  0.00  0.00    +0.000 A 
ATOM     21  C   UNL     1      46.281   3.874  13.245  0.00  0.00    +0.000 A 
ATOM     22  C   UNL     1      45.293   4.174  12.297  0.00  0.00    +0.000 A 
ATOM     23  C   UNL     1      45.258   5.469  11.760  0.00  0.00    +0.000 A 
ATOM     24  C   UNL     1      46.156   6.448  12.198  0.00  0.00    +0.000 A 
BRANCH  22  25
ATOM     25  C   UNL     1      44.312   3.132  11.805  0.00  0.00    +0.000 C 
BRANCH  25  26
ATOM     26  C   UNL     1      44.020   3.130  10.292  0.00  0.00    +0.000 C 
BRANCH  26  27
ATOM     27  N   UNL     1      44.581   1.964   9.602  0.00  0.00    +0.000 NA
ATOM     28  H   UNL     1      43.861   1.518   9.034  0.00  0.00    +0.000 HD
BRANCH  27  29
ATOM     29  C   UNL     1      45.760   2.268   8.781  0.00  0.00    +0.000 C 
ATOM     30  C   UNL     1      45.377   3.374   7.778  0.00  0.00    +0.000 C 
ATOM     31  C   UNL     1      46.528   3.710   6.829  0.00  0.00    +0.000 C 
ATOM     32  C   UNL     1      47.038   2.471   6.103  0.00  0.00    +0.000 C 
ATOM     33  C   UNL     1      47.449   1.391   7.094  0.00  0.00    +0.000 C 
ATOM     34  C   UNL     1      46.299   1.034   8.032  0.00  0.00    +0.000 C 
ENDBRANCH  27  29
ENDBRANCH  26  27
ENDBRANCH  25  26
ENDBRANCH  22  25
ENDBRANCH  18  19
ENDBRANCH   3  18
TORSDOF 8
ENDMDL
MODEL 3
REMARK VINA RESULT:    -7.990      2.207      3.075
REMARK INTER + INTRA:         -13.310
REMARK INTER:                 -12.178
REMARK INTRA:                  -1.132
REMARK UNBOUND:                -1.583
REMARK  Name = 
REMARK  8 active torsions:
REMARK  status: ('A' for Active; 'I' for Inactive)
REMARK    1  A    between atoms: C_2  and  C_20
REMARK    2  A    between atoms: N_3  and  C_4
REMARK    3  A    between atoms: C_4  and  C_5
REMARK    4  A    between atoms: C_8  and  C_9
REMARK    5  A    between atoms: C_9  and  C_10
REMARK    6  A    between atoms: C_10  and  N_11
REMARK    7  A    between atoms: N_11  and  C_12
REMARK    8  A    between atoms: C_27  and  N_28
REMARK                            x       y       z     vdW  Elec       q    Type
REMARK                         _______ _______ _______ _____ _____    ______ ____
ROOT
ATOM      1  O   UNL     1      50.340   5.747  16.400  0.00  0.00    +0.000 OA
ATOM      2  C   UNL     1      49.172   5.554  16.709  0.00  0.00    +0.000 C 
ATOM      3  N   UNL     1      48.097   5.844  15.900  0.00  0.00    +0.000 N 
ATOM      4  H   UNL     1      47.179   5.872  16.317  0.00  0.00    +0.000 HD
ENDROOT
BRANCH   2   5
ATOM      5  C   UNL     1      48.809   4.925  17.976  0.00  0.00    +0.000 A 
ATOM      6  C   UNL     1      48.677   3.554  18.164  0.00  0.00    +0.000 A 
ATOM      7  N   UNL     1      48.480   3.314  19.494  0.00  0.00    +0.000 N 
ATOM      8  C   UNL     1      48.461   4.497  20.174  0.00  0.00    +0.000 A 
ATOM      9  N   UNL     1      48.306   4.581  21.509  0.00  0.00    +0.000 NA
ATOM     10  C   UNL     1      48.314   5.844  21.985  0.00  0.00    +0.000 A 
ATOM     11  C   UNL     1      48.439   6.986  21.220  0.00  0.00    +0.000 A 
ATOM     12  C   UNL     1      48.589   6.819  19.842  0.00  0.00    +0.000 A 
ATOM     13  C   UNL     1      48.627   5.537  19.263  0.00  0.00    +0.000 A 
ATOM     14  H   UNL     1      48.396   2.412  19.940  0.00  0.00    +0.000 HD
BRANCH  12  15
ATOM     15  N   UNL     1      48.611   7.995  19.002  0.00  0.00    +0.000 N 
ATOM     16  O   UNL     1      47.521   8.382  18.555  0.00  0.00    +0.000 OA
ATOM     17  O   UNL     1      49.721   8.446  18.696  0.00  0.00    +0.000 OA
ENDBRANCH  12  15
ENDBRANCH   2   5
BRANCH   3  18
ATOM     18  C   UNL     1      48.265   6.442  14.601  0.00  0.00    +0.000 C 
BRANCH  18  19
ATOM     19  C   UNL     1      47.145   6.065  13.675  0.00  0.00    +0.000 A 
ATOM     20  C   UNL     1      46.646   7.014  12.780  0.00  0.00    +0.000 A 
ATOM     21  C   UNL     1      45.614   6.685  11.906  0.00  0.00    +0.000 A 
ATOM     22  C   UNL     1      45.055   5.400  11.897  0.00  0.00    +0.000 A 
ATOM     23  C   UNL     1      45.527   4.464  12.828  0.00  0.00    +0.000 A 
ATOM     24  C   UNL     1      46.563   4.791  13.708  0.00  0.00    +0.000 A 
BRANCH  22  25
ATOM     25  C   UNL     1      43.930   5.022  10.956  0.00  0.00    +0.000 C 
BRANCH  25  26
ATOM     26  C   UNL     1      44.199   3.832  10.016  0.00  0.00    +0.000 C 
BRANCH  26  27
ATOM     27  N   UNL     1      44.399   4.238   8.621  0.00  0.00    +0.000 NA
ATOM     28  H   UNL     1      44.904   5.123   8.587  0.00  0.00    +0.000 HD
BRANCH  27  29
ATOM     29  C   UNL     1      45.081   3.230   7.799  0.00  0.00    +0.000 C 
ATOM     30  C   UNL     1      45.534   2.081   8.720  0.00  0.00    +0.000 C 
ATOM     31  C   UNL     1      46.319   1.012   7.959  0.00  0.00    +0.000 C 
ATOM     32  C   UNL     1      47.506   1.610   7.213  0.00  0.00    +0.000 C 
ATOM     33  C   UNL     1      47.055   2.723   6.277  0.00  0.00    +0.000 C 
ATOM     34  C   UNL     1      46.288   3.805   7.032  0.00  0.00    +0.000 C 
ENDBRANCH  27  29
ENDBRANCH  26  27
ENDBRANCH  25  26
ENDBRANCH  22  25
ENDBRANCH  18  19
ENDBRANCH   3  18
TORSDOF 8
ENDMDL
MODEL 4
REMARK VINA RESULT:    -7.695      1.874      2.449
REMARK INTER + INTRA:         -12.877
REMARK INTER:                 -11.483
REMARK INTRA:                  -1.394
REMARK UNBOUND:                -1.583
REMARK  Name = 
REMARK  8 active torsions:
REMARK  status: ('A' for Active; 'I' for Inactive)
REMARK    1  A    between atoms: C_2  and  C_20
REMARK    2  A    between atoms: N_3  and  C_4
REMARK    3  A    between atoms: C_4  and  C_5
REMARK    4  A    between atoms: C_8  and  C_9
REMARK    5  A    between atoms: C_9  and  C_10
REMARK    6  A    between atoms: C_10  and  N_11
REMARK    7  A    between atoms: N_11  and  C_12
REMARK    8  A    between atoms: C_27  and  N_28
REMARK                            x       y       z     vdW  Elec       q    Type
REMARK                         _______ _______ _______ _____ _____    ______ ____
ROOT
ATOM      1  O   UNL     1      48.610   8.105  16.064  0.00  0.00    +0.000 OA
ATOM      2  C   UNL     1      49.372   7.438  15.376  0.00  0.00    +0.000 C 
ATOM      3  N   UNL     1      49.162   7.145  14.048  0.00  0.00    +0.000 N 
ATOM      4  H   UNL     1      49.708   6.408  13.630  0.00  0.00    +0.000 HD
ENDROOT
BRANCH   2   5
ATOM      5  C   UNL     1      50.634   6.931  15.904  0.00  0.00    +0.000 A 
ATOM      6  C   UNL     1      51.873   7.524  15.688  0.00  0.00    +0.000 A 
ATOM      7  N   UNL     1      52.805   6.876  16.448  0.00  0.00    +0.000 N 
ATOM      8  C   UNL     1      52.208   5.863  17.138  0.00  0.00    +0.000 A 
ATOM      9  N   UNL     1      52.869   5.059  17.991  0.00  0.00    +0.000 NA
ATOM     10  C   UNL     1      52.095   4.117  18.572  0.00  0.00    +0.000 A 
ATOM     11  C   UNL     1      50.748   3.931  18.333  0.00  0.00    +0.000 A 
ATOM     12  C   UNL     1      50.132   4.801  17.431  0.00  0.00    +0.000 A 
ATOM     13  C   UNL     1      50.855   5.833  16.805  0.00  0.00    +0.000 A 
ATOM     14  H   UNL     1      53.783   7.111  16.534  0.00  0.00    +0.000 HD
BRANCH  12  15
ATOM     15  N   UNL     1      48.752   4.563  17.076  0.00  0.00    +0.000 N 
ATOM     16  O   UNL     1      47.900   5.246  17.662  0.00  0.00    +0.000 OA
ATOM     17  O   UNL     1      48.523   3.617  16.312  0.00  0.00    +0.000 OA
ENDBRANCH  12  15
ENDBRANCH   2   5
BRANCH   3  18
ATOM     18  C   UNL     1      47.983   7.588  13.351  0.00  0.00    +0.000 C 
BRANCH  18  19
ATOM     19  C   UNL     1      47.107   6.431  12.966  0.00  0.00    +0.000 A 
ATOM     20  C   UNL     1      46.459   6.443  11.728  0.00  0.00    +0.000 A 
ATOM     21  C   UNL     1      45.650   5.378  11.345  0.00  0.00    +0.000 A 
ATOM     22  C   UNL     1      45.469   4.269  12.183  0.00  0.00    +0.000 A 
ATOM     23  C   UNL     1      46.084   4.281  13.443  0.00  0.00    +0.000 A 
ATOM     24  C   UNL     1      46.897   5.350  13.831  0.00  0.00    +0.000 A 
BRANCH  22  25
ATOM     25  C   UNL     1      44.591   3.101  11.787  0.00  0.00    +0.000 C 
BRANCH  25  26
ATOM     26  C   UNL     1      44.003   3.140  10.363  0.00  0.00    +0.000 C 
BRANCH  26  27
ATOM     27  N   UNL     1      44.453   2.023   9.527  0.00  0.00    +0.000 NA
ATOM     28  H   UNL     1      43.705   1.741   8.894  0.00  0.00    +0.000 HD
BRANCH  27  29
ATOM     29  C   UNL     1      45.681   2.300   8.772  0.00  0.00    +0.000 C 
ATOM     30  C   UNL     1      45.386   3.435   7.771  0.00  0.00    +0.000 C 
ATOM     31  C   UNL     1      46.594   3.747   6.888  0.00  0.00    +0.000 C 
ATOM     32  C   UNL     1      47.100   2.504   6.166  0.00  0.00    +0.000 C 
ATOM     33  C   UNL     1      47.424   1.394   7.156  0.00  0.00    +0.000 C 
ATOM     34  C   UNL     1      46.217   1.061   8.029  0.00  0.00    +0.000 C 
ENDBRANCH  27  29
ENDBRANCH  26  27
ENDBRANCH  25  26
ENDBRANCH  22  25
ENDBRANCH  18  19
ENDBRANCH   3  18
TORSDOF 8
ENDMDL
MODEL 5
REMARK VINA RESULT:    -7.414      2.477      3.305
REMARK INTER + INTRA:         -12.464
REMARK INTER:                 -11.055
REMARK INTRA:                  -1.409
REMARK UNBOUND:                -1.583
REMARK  Name = 
REMARK  8 active torsions:
REMARK  status: ('A' for Active; 'I' for Inactive)
REMARK    1  A    between atoms: C_2  and  C_20
REMARK    2  A    between atoms: N_3  and  C_4
REMARK    3  A    between atoms: C_4  and  C_5
REMARK    4  A    between atoms: C_8  and  C_9
REMARK    5  A    between atoms: C_9  and  C_10
REMARK    6  A    between atoms: C_10  and  N_11
REMARK    7  A    between atoms: N_11  and  C_12
REMARK    8  A    between atoms: C_27  and  N_28
REMARK                            x       y       z     vdW  Elec       q    Type
REMARK                         _______ _______ _______ _____ _____    ______ ____
ROOT
ATOM      1  O   UNL     1      50.115   4.756  16.735  0.00  0.00    +0.000 OA
ATOM      2  C   UNL     1      49.308   5.674  16.805  0.00  0.00    +0.000 C 
ATOM      3  N   UNL     1      48.037   5.630  16.279  0.00  0.00    +0.000 N 
ATOM      4  H   UNL     1      47.532   6.498  16.178  0.00  0.00    +0.000 HD
ENDROOT
BRANCH   2   5
ATOM      5  C   UNL     1      49.610   6.906  17.527  0.00  0.00    +0.000 A 
ATOM      6  C   UNL     1      50.538   7.855  17.110  0.00  0.00    +0.000 A 
ATOM      7  N   UNL     1      50.453   8.939  17.936  0.00  0.00    +0.000 N 
ATOM      8  C   UNL     1      49.508   8.712  18.893  0.00  0.00    +0.000 A 
ATOM      9  N   UNL     1      49.183   9.611  19.840  0.00  0.00    +0.000 NA
ATOM     10  C   UNL     1      48.224   9.191  20.692  0.00  0.00    +0.000 A 
ATOM     11  C   UNL     1      47.614   7.953  20.662  0.00  0.00    +0.000 A 
ATOM     12  C   UNL     1      48.009   7.071  19.654  0.00  0.00    +0.000 A 
ATOM     13  C   UNL     1      48.976   7.438  18.701  0.00  0.00    +0.000 A 
ATOM     14  H   UNL     1      50.970   9.802  17.855  0.00  0.00    +0.000 HD
BRANCH  12  15
ATOM     15  N   UNL     1      47.471   5.730  19.661  0.00  0.00    +0.000 N 
ATOM     16  O   UNL     1      48.149   4.859  20.226  0.00  0.00    +0.000 OA
ATOM     17  O   UNL     1      46.444   5.533  19.000  0.00  0.00    +0.000 OA
ENDBRANCH  12  15
ENDBRANCH   2   5
BRANCH   3  18
ATOM     18  C   UNL     1      47.553   4.482  15.558  0.00  0.00    +0.000 C 
BRANCH  18  19
ATOM     19  C   UNL     1      46.978   4.873  14.227  0.00  0.00    +0.000 A 
ATOM     20  C   UNL     1      46.104   4.000  13.574  0.00  0.00    +0.000 A 
ATOM     21  C   UNL     1      45.551   4.344  12.345  0.00  0.00    +0.000 A 
ATOM     22  C   UNL     1      45.850   5.570  11.735  0.00  0.00    +0.000 A 
ATOM     23  C   UNL     1      46.762   6.424  12.371  0.00  0.00    +0.000 A 
ATOM     24  C   UNL     1      47.320   6.081  13.606  0.00  0.00    +0.000 A 
BRANCH  22  25
ATOM     25  C   UNL     1      45.261   5.963  10.397  0.00  0.00    +0.000 C 
BRANCH  25  26
ATOM     26  C   UNL     1      45.811   5.219   9.164  0.00  0.00    +0.000 C 
BRANCH  26  27
ATOM     27  N   UNL     1      44.788   4.432   8.468  0.00  0.00    +0.000 NA
ATOM     28  H   UNL     1      44.226   5.043   7.875  0.00  0.00    +0.000 HD
BRANCH  27  29
ATOM     29  C   UNL     1      45.329   3.316   7.680  0.00  0.00    +0.000 C 
ATOM     30  C   UNL     1      45.666   2.163   8.645  0.00  0.00    +0.000 C 
ATOM     31  C   UNL     1      46.301   0.977   7.920  0.00  0.00    +0.000 C 
ATOM     32  C   UNL     1      47.532   1.397   7.125  0.00  0.00    +0.000 C 
ATOM     33  C   UNL     1      47.192   2.513   6.147  0.00  0.00    +0.000 C 
ATOM     34  C   UNL     1      46.576   3.711   6.865  0.00  0.00    +0.000 C 
ENDBRANCH  27  29
ENDBRANCH  26  27
ENDBRANCH  25  26
ENDBRANCH  22  25
ENDBRANCH  18  19
ENDBRANCH   3  18
TORSDOF 8
ENDMDL
MODEL 6
REMARK VINA RESULT:    -7.334      2.052      3.388
REMARK INTER + INTRA:         -12.348
REMARK INTER:                 -10.925
REMARK INTRA:                  -1.423
REMARK UNBOUND:                -1.583
REMARK  Name = 
REMARK  8 active torsions:
REMARK  status: ('A' for Active; 'I' for Inactive)
REMARK    1  A    between atoms: C_2  and  C_20
REMARK    2  A    between atoms: N_3  and  C_4
REMARK    3  A    between atoms: C_4  and  C_5
REMARK    4  A    between atoms: C_8  and  C_9
REMARK    5  A    between atoms: C_9  and  C_10
REMARK    6  A    between atoms: C_10  and  N_11
REMARK    7  A    between atoms: N_11  and  C_12
REMARK    8  A    between atoms: C_27  and  N_28
REMARK                            x       y       z     vdW  Elec       q    Type
REMARK                         _______ _______ _______ _____ _____    ______ ____
ROOT
ATOM      1  O   UNL     1      47.212   3.172  18.065  0.00  0.00    +0.000 OA
ATOM      2  C   UNL     1      47.573   4.264  17.646  0.00  0.00    +0.000 C 
ATOM      3  N   UNL     1      47.753   4.561  16.314  0.00  0.00    +0.000 N 
ATOM      4  H   UNL     1      48.269   5.395  16.077  0.00  0.00    +0.000 HD
ENDROOT
BRANCH   2   5
ATOM      5  C   UNL     1      47.790   5.395  18.542  0.00  0.00    +0.000 A 
ATOM      6  C   UNL     1      46.862   5.855  19.469  0.00  0.00    +0.000 A 
ATOM      7  N   UNL     1      47.451   6.820  20.234  0.00  0.00    +0.000 N 
ATOM      8  C   UNL     1      48.734   7.016  19.815  0.00  0.00    +0.000 A 
ATOM      9  N   UNL     1      49.576   7.892  20.393  0.00  0.00    +0.000 NA
ATOM     10  C   UNL     1      50.801   7.935  19.827  0.00  0.00    +0.000 A 
ATOM     11  C   UNL     1      51.204   7.190  18.737  0.00  0.00    +0.000 A 
ATOM     12  C   UNL     1      50.273   6.307  18.187  0.00  0.00    +0.000 A 
ATOM     13  C   UNL     1      48.984   6.172  18.735  0.00  0.00    +0.000 A 
ATOM     14  H   UNL     1      47.039   7.305  21.018  0.00  0.00    +0.000 HD
BRANCH  12  15
ATOM     15  N   UNL     1      50.625   5.595  16.980  0.00  0.00    +0.000 N 
ATOM     16  O   UNL     1      50.396   6.170  15.905  0.00  0.00    +0.000 OA
ATOM     17  O   UNL     1      51.009   4.426  17.108  0.00  0.00    +0.000 OA
ENDBRANCH  12  15
ENDBRANCH   2   5
BRANCH   3  18
ATOM     18  C   UNL     1      47.556   3.576  15.283  0.00  0.00    +0.000 C 
BRANCH  18  19
ATOM     19  C   UNL     1      46.948   4.185  14.053  0.00  0.00    +0.000 A 
ATOM     20  C   UNL     1      47.246   5.509  13.723  0.00  0.00    +0.000 A 
ATOM     21  C   UNL     1      46.702   6.093  12.583  0.00  0.00    +0.000 A 
ATOM     22  C   UNL     1      45.849   5.370  11.739  0.00  0.00    +0.000 A 
ATOM     23  C   UNL     1      45.515   4.056  12.096  0.00  0.00    +0.000 A 
ATOM     24  C   UNL     1      46.060   3.468  13.241  0.00  0.00    +0.000 A 
BRANCH  22  25
ATOM     25  C   UNL     1      45.243   5.986  10.494  0.00  0.00    +0.000 C 
BRANCH  25  26
ATOM     26  C   UNL     1      45.628   5.332   9.153  0.00  0.00    +0.000 C 
BRANCH  26  27
ATOM     27  N   UNL     1      44.655   4.331   8.705  0.00  0.00    +0.000 NA
ATOM     28  H   UNL     1      43.882   4.790   8.224  0.00  0.00    +0.000 HD
BRANCH  27  29
ATOM     29  C   UNL     1      45.230   3.281   7.854  0.00  0.00    +0.000 C 
ATOM     30  C   UNL     1      45.634   2.098   8.756  0.00  0.00    +0.000 C 
ATOM     31  C   UNL     1      46.308   0.978   7.962  0.00  0.00    +0.000 C 
ATOM     32  C   UNL     1      47.505   1.491   7.170  0.00  0.00    +0.000 C 
ATOM     33  C   UNL     1      47.100   2.638   6.255  0.00  0.00    +0.000 C 
ATOM     34  C   UNL     1      46.444   3.769   7.041  0.00  0.00    +0.000 C 
ENDBRANCH  27  29
ENDBRANCH  26  27
ENDBRANCH  25  26
ENDBRANCH  22  25
ENDBRANCH  18  19
ENDBRANCH   3  18
TORSDOF 8
ENDMDL
MODEL 7
REMARK VINA RESULT:    -7.218      1.862      2.167
REMARK INTER + INTRA:         -12.178
REMARK INTER:                 -10.995
REMARK INTRA:                  -1.183
REMARK UNBOUND:                -1.583
REMARK  Name = 
REMARK  8 active torsions:
REMARK  status: ('A' for Active; 'I' for Inactive)
REMARK    1  A    between atoms: C_2  and  C_20
REMARK    2  A    between atoms: N_3  and  C_4
REMARK    3  A    between atoms: C_4  and  C_5
REMARK    4  A    between atoms: C_8  and  C_9
REMARK    5  A    between atoms: C_9  and  C_10
REMARK    6  A    between atoms: C_10  and  N_11
REMARK    7  A    between atoms: N_11  and  C_12
REMARK    8  A    between atoms: C_27  and  N_28
REMARK                            x       y       z     vdW  Elec       q    Type
REMARK                         _______ _______ _______ _____ _____    ______ ____
ROOT
ATOM      1  O   UNL     1      48.338   6.755  17.353  0.00  0.00    +0.000 OA
ATOM      2  C   UNL     1      49.207   6.516  16.526  0.00  0.00    +0.000 C 
ATOM      3  N   UNL     1      49.277   7.102  15.283  0.00  0.00    +0.000 N 
ATOM      4  H   UNL     1      49.877   6.682  14.589  0.00  0.00    +0.000 HD
ENDROOT
BRANCH   2   5
ATOM      5  C   UNL     1      50.312   5.606  16.816  0.00  0.00    +0.000 A 
ATOM      6  C   UNL     1      51.625   6.008  17.038  0.00  0.00    +0.000 A 
ATOM      7  N   UNL     1      52.353   4.920  17.427  0.00  0.00    +0.000 N 
ATOM      8  C   UNL     1      51.552   3.816  17.445  0.00  0.00    +0.000 A 
ATOM      9  N   UNL     1      51.983   2.595  17.810  0.00  0.00    +0.000 NA
ATOM     10  C   UNL     1      51.034   1.637  17.757  0.00  0.00    +0.000 A 
ATOM     11  C   UNL     1      49.728   1.827  17.349  0.00  0.00    +0.000 A 
ATOM     12  C   UNL     1      49.356   3.120  16.978  0.00  0.00    +0.000 A 
ATOM     13  C   UNL     1      50.273   4.187  17.036  0.00  0.00    +0.000 A 
ATOM     14  H   UNL     1      53.325   4.910  17.701  0.00  0.00    +0.000 HD
BRANCH  12  15
ATOM     15  N   UNL     1      48.032   3.331  16.441  0.00  0.00    +0.000 N 
ATOM     16  O   UNL     1      47.137   3.605  17.255  0.00  0.00    +0.000 OA
ATOM     17  O   UNL     1      47.870   3.098  15.237  0.00  0.00    +0.000 OA
ENDBRANCH  12  15
ENDBRANCH   2   5
BRANCH   3  18
ATOM     18  C   UNL     1      48.288   8.048  14.833  0.00  0.00    +0.000 C 
BRANCH  18  19
ATOM     19  C   UNL     1      47.338   7.423  13.854  0.00  0.00    +0.000 A 
ATOM     20  C   UNL     1      46.420   8.230  13.178  0.00  0.00    +0.000 A 
ATOM     21  C   UNL     1      45.535   7.676  12.258  0.00  0.00    +0.000 A 
ATOM     22  C   UNL     1      45.545   6.302  11.984  0.00  0.00    +0.000 A 
ATOM     23  C   UNL     1      46.437   5.487  12.696  0.00  0.00    +0.000 A 
ATOM     24  C   UNL     1      47.326   6.042  13.621  0.00  0.00    +0.000 A 
BRANCH  22  25
ATOM     25  C   UNL     1      44.589   5.676  10.989  0.00  0.00    +0.000 C 
BRANCH  25  26
ATOM     26  C   UNL     1      45.151   4.523  10.135  0.00  0.00    +0.000 C 
BRANCH  26  27
ATOM     27  N   UNL     1      44.798   4.635   8.717  0.00  0.00    +0.000 NA
ATOM     28  H   UNL     1      45.121   5.530   8.349  0.00  0.00    +0.000 HD
BRANCH  27  29
ATOM     29  C   UNL     1      45.302   3.533   7.888  0.00  0.00    +0.000 C 
ATOM     30  C   UNL     1      45.567   2.322   8.804  0.00  0.00    +0.000 C 
ATOM     31  C   UNL     1      46.161   1.142   8.035  0.00  0.00    +0.000 C 
ATOM     32  C   UNL     1      47.426   1.541   7.283  0.00  0.00    +0.000 C 
ATOM     33  C   UNL     1      47.157   2.715   6.352  0.00  0.00    +0.000 C 
ATOM     34  C   UNL     1      46.582   3.906   7.115  0.00  0.00    +0.000 C 
ENDBRANCH  27  29
ENDBRANCH  26  27
ENDBRANCH  25  26
ENDBRANCH  22  25
ENDBRANCH  18  19
ENDBRANCH   3  18
TORSDOF 8
ENDMDL
MODEL 8
REMARK VINA RESULT:    -7.172      3.860      6.398
REMARK INTER + INTRA:         -12.110
REMARK INTER:                 -10.734
REMARK INTRA:                  -1.375
REMARK UNBOUND:                -1.583
REMARK  Name = 
REMARK  8 active torsions:
REMARK  status: ('A' for Active; 'I' for Inactive)
REMARK    1  A    between atoms: C_2  and  C_20
REMARK    2  A    between atoms: N_3  and  C_4
REMARK    3  A    between atoms: C_4  and  C_5
REMARK    4  A    between atoms: C_8  and  C_9
REMARK    5  A    between atoms: C_9  and  C_10
REMARK    6  A    between atoms: C_10  and  N_11
REMARK    7  A    between atoms: N_11  and  C_12
REMARK    8  A    between atoms: C_27  and  N_28
REMARK                            x       y       z     vdW  Elec       q    Type
REMARK                         _______ _______ _______ _____ _____    ______ ____
ROOT
ATOM      1  O   UNL     1      48.717  10.562  13.941  0.00  0.00    +0.000 OA
ATOM      2  C   UNL     1      48.525  10.069  12.837  0.00  0.00    +0.000 C 
ATOM      3  N   UNL     1      47.938   8.842  12.628  0.00  0.00    +0.000 N 
ATOM      4  H   UNL     1      48.032   8.418  11.718  0.00  0.00    +0.000 HD
ENDROOT
BRANCH   2   5
ATOM      5  C   UNL     1      48.855  10.787  11.610  0.00  0.00    +0.000 A 
ATOM      6  C   UNL     1      50.135  10.882  11.073  0.00  0.00    +0.000 A 
ATOM      7  N   UNL     1      50.052  11.491   9.854  0.00  0.00    +0.000 N 
ATOM      8  C   UNL     1      48.753  11.814   9.591  0.00  0.00    +0.000 A 
ATOM      9  N   UNL     1      48.353  12.406   8.451  0.00  0.00    +0.000 NA
ATOM     10  C   UNL     1      47.026  12.642   8.388  0.00  0.00    +0.000 A 
ATOM     11  C   UNL     1      46.114  12.348   9.383  0.00  0.00    +0.000 A 
ATOM     12  C   UNL     1      46.604  11.740  10.540  0.00  0.00    +0.000 A 
ATOM     13  C   UNL     1      47.969  11.426  10.676  0.00  0.00    +0.000 A 
ATOM     14  H   UNL     1      50.810  11.656   9.208  0.00  0.00    +0.000 HD
BRANCH  12  15
ATOM     15  N   UNL     1      45.696  11.521  11.642  0.00  0.00    +0.000 N 
ATOM     16  O   UNL     1      45.291  10.361  11.810  0.00  0.00    +0.000 OA
ATOM     17  O   UNL     1      45.299  12.522  12.250  0.00  0.00    +0.000 OA
ENDBRANCH  12  15
ENDBRANCH   2   5
BRANCH   3  18
ATOM     18  C   UNL     1      47.520   8.004  13.721  0.00  0.00    +0.000 C 
BRANCH  18  19
ATOM     19  C   UNL     1      46.809   6.777  13.230  0.00  0.00    +0.000 A 
ATOM     20  C   UNL     1      47.106   5.537  13.801  0.00  0.00    +0.000 A 
ATOM     21  C   UNL     1      46.453   4.387  13.370  0.00  0.00    +0.000 A 
ATOM     22  C   UNL     1      45.482   4.442  12.360  0.00  0.00    +0.000 A 
ATOM     23  C   UNL     1      45.219   5.681  11.757  0.00  0.00    +0.000 A 
ATOM     24  C   UNL     1      45.874   6.838  12.189  0.00  0.00    +0.000 A 
BRANCH  22  25
ATOM     25  C   UNL     1      44.761   3.202  11.873  0.00  0.00    +0.000 C 
BRANCH  25  26
ATOM     26  C   UNL     1      44.155   3.278  10.459  0.00  0.00    +0.000 C 
BRANCH  26  27
ATOM     27  N   UNL     1      44.521   2.135   9.617  0.00  0.00    +0.000 NA
ATOM     28  H   UNL     1      43.737   1.881   9.017  0.00  0.00    +0.000 HD
BRANCH  27  29
ATOM     29  C   UNL     1      45.729   2.351   8.811  0.00  0.00    +0.000 C 
ATOM     30  C   UNL     1      45.445   3.489   7.811  0.00  0.00    +0.000 C 
ATOM     31  C   UNL     1      46.629   3.741   6.878  0.00  0.00    +0.000 C 
ATOM     32  C   UNL     1      47.051   2.470   6.149  0.00  0.00    +0.000 C 
ATOM     33  C   UNL     1      47.365   1.355   7.137  0.00  0.00    +0.000 C 
ATOM     34  C   UNL     1      46.180   1.083   8.060  0.00  0.00    +0.000 C 
ENDBRANCH  27  29
ENDBRANCH  26  27
ENDBRANCH  25  26
ENDBRANCH  22  25
ENDBRANCH  18  19
ENDBRANCH   3  18
TORSDOF 8
ENDMDL
MODEL 9
REMARK VINA RESULT:    -6.860      2.952      7.840
REMARK INTER + INTRA:         -11.652
REMARK INTER:                  -9.574
REMARK INTRA:                  -2.079
REMARK UNBOUND:                -1.583
REMARK  Name = 
REMARK  8 active torsions:
REMARK  status: ('A' for Active; 'I' for Inactive)
REMARK    1  A    between atoms: C_2  and  C_20
REMARK    2  A    between atoms: N_3  and  C_4
REMARK    3  A    between atoms: C_4  and  C_5
REMARK    4  A    between atoms: C_8  and  C_9
REMARK    5  A    between atoms: C_9  and  C_10
REMARK    6  A    between atoms: C_10  and  N_11
REMARK    7  A    between atoms: N_11  and  C_12
REMARK    8  A    between atoms: C_27  and  N_28
REMARK                            x       y       z     vdW  Elec       q    Type
REMARK                         _______ _______ _______ _____ _____    ______ ____
ROOT
ATOM      1  O   UNL     1      47.894   7.077  12.039  0.00  0.00    +0.000 OA
ATOM      2  C   UNL     1      46.880   7.506  12.572  0.00  0.00    +0.000 C 
ATOM      3  N   UNL     1      46.867   8.484  13.539  0.00  0.00    +0.000 N 
ATOM      4  H   UNL     1      46.026   8.608  14.082  0.00  0.00    +0.000 HD
ENDROOT
BRANCH   2   5
ATOM      5  C   UNL     1      45.553   7.047  12.172  0.00  0.00    +0.000 A 
ATOM      6  C   UNL     1      44.610   7.836  11.521  0.00  0.00    +0.000 A 
ATOM      7  N   UNL     1      43.552   7.048  11.169  0.00  0.00    +0.000 N 
ATOM      8  C   UNL     1      43.772   5.770  11.592  0.00  0.00    +0.000 A 
ATOM      9  N   UNL     1      42.913   4.758  11.370  0.00  0.00    +0.000 NA
ATOM     10  C   UNL     1      43.317   3.572  11.872  0.00  0.00    +0.000 A 
ATOM     11  C   UNL     1      44.483   3.359  12.580  0.00  0.00    +0.000 A 
ATOM     12  C   UNL     1      45.322   4.459  12.776  0.00  0.00    +0.000 A 
ATOM     13  C   UNL     1      44.996   5.726  12.257  0.00  0.00    +0.000 A 
ATOM     14  H   UNL     1      42.737   7.330  10.644  0.00  0.00    +0.000 HD
BRANCH  12  15
ATOM     15  N   UNL     1      46.493   4.294  13.606  0.00  0.00    +0.000 N 
ATOM     16  O   UNL     1      47.347   3.487  13.212  0.00  0.00    +0.000 OA
ATOM     17  O   UNL     1      46.492   4.874  14.699  0.00  0.00    +0.000 OA
ENDBRANCH  12  15
ENDBRANCH   2   5
BRANCH   3  18
ATOM     18  C   UNL     1      48.081   9.075  14.037  0.00  0.00    +0.000 C 
BRANCH  18  19
ATOM     19  C   UNL     1      48.448   8.523  15.384  0.00  0.00    +0.000 A 
ATOM     20  C   UNL     1      48.249   9.305  16.524  0.00  0.00    +0.000 A 
ATOM     21  C   UNL     1      48.572   8.812  17.784  0.00  0.00    +0.000 A 
ATOM     22  C   UNL     1      49.098   7.523  17.942  0.00  0.00    +0.000 A 
ATOM     23  C   UNL     1      49.339   6.757  16.793  0.00  0.00    +0.000 A 
ATOM     24  C   UNL     1      49.016   7.250  15.525  0.00  0.00    +0.000 A 
BRANCH  22  25
ATOM     25  C   UNL     1      49.459   6.966  19.304  0.00  0.00    +0.000 C 
BRANCH  25  26
ATOM     26  C   UNL     1      50.310   5.682  19.312  0.00  0.00    +0.000 C 
BRANCH  26  27
ATOM     27  N   UNL     1      49.649   4.562  19.989  0.00  0.00    +0.000 NA
ATOM     28  H   UNL     1      48.880   4.909  20.562  0.00  0.00    +0.000 HD
BRANCH  27  29
ATOM     29  C   UNL     1      49.173   3.512  19.079  0.00  0.00    +0.000 C 
ATOM     30  C   UNL     1      50.243   3.294  17.992  0.00  0.00    +0.000 C 
ATOM     31  C   UNL     1      49.802   2.261  16.954  0.00  0.00    +0.000 C 
ATOM     32  C   UNL     1      48.461   2.628  16.330  0.00  0.00    +0.000 C 
ATOM     33  C   UNL     1      47.395   2.811  17.401  0.00  0.00    +0.000 C 
ATOM     34  C   UNL     1      47.817   3.855  18.431  0.00  0.00    +0.000 C 
ENDBRANCH  27  29
ENDBRANCH  26  27
ENDBRANCH  25  26
ENDBRANCH  22  25
ENDBRANCH  18  19
ENDBRANCH   3  18
TORSDOF 8
ENDMDL
