MODEL 1
REMARK VINA RESULT:    -8.852      0.000      0.000
REMARK INTER + INTRA:         -13.515
REMARK INTER:                 -12.474
REMARK INTRA:                  -1.041
REMARK UNBOUND:                -1.041
REMARK  Name = 
REMARK  8 active torsions:
REMARK  status: ('A' for Active; 'I' for Inactive)
REMARK    1  A    between atoms: C_1  and  C_2
REMARK    2  A    between atoms: C_2  and  N_3
REMARK    3  A    between atoms: C_2  and  C_26
REMARK    4  A    between atoms: N_3  and  C_4
REMARK    5  A    between atoms: C_4  and  C_5
REMARK    6  A    between atoms: C_10  and  C_11
REMARK    7  A    between atoms: C_11  and  N_12
REMARK    8  A    between atoms: C_13  and  C_15
REMARK                            x       y       z     vdW  Elec       q    Type
REMARK                         _______ _______ _______ _____ _____    ______ ____
ROOT
ATOM      1  C   UNL     1      44.768   5.412  11.299  0.00  0.00    +0.000 A 
ATOM      2  C   UNL     1      45.749   6.359  10.980  0.00  0.00    +0.000 A 
ATOM      3  C   UNL     1      46.846   6.537  11.816  0.00  0.00    +0.000 A 
ATOM      4  F   UNL     1      47.800   7.412  11.472  0.00  0.00    +0.000 F 
ATOM      5  C   UNL     1      47.000   5.781  12.971  0.00  0.00    +0.000 A 
ATOM      6  C   UNL     1      46.032   4.828  13.313  0.00  0.00    +0.000 A 
ATOM      7  C   UNL     1      44.902   4.676  12.490  0.00  0.00    +0.000 A 
ENDROOT
BRANCH   1   8
ATOM      8  C   UNL     1      43.724   5.031  10.275  0.00  0.00    +0.000 C 
BRANCH   8   9
ATOM      9  N   UNL     1      44.256   4.521   9.006  0.00  0.00    +0.000 NA
ATOM     10  H   UNL     1      44.863   5.242   8.610  0.00  0.00    +0.000 HD
BRANCH   9  12
ATOM     11  C   UNL     1      44.225   2.124   9.727  0.00  0.00    +0.000 C 
ATOM     12  C   UNL     1      45.080   3.307   9.243  0.00  0.00    +0.000 C 
BRANCH  12  13
ATOM     13  C   UNL     1      45.865   2.812   8.026  0.00  0.00    +0.000 A 
ATOM     14  C   UNL     1      46.450   1.548   7.990  0.00  0.00    +0.000 A 
ATOM     15  C   UNL     1      47.302   1.223   6.935  0.00  0.00    +0.000 A 
ATOM     16  C   UNL     1      47.554   2.164   5.943  0.00  0.00    +0.000 A 
ATOM     17  C   UNL     1      46.919   3.389   6.038  0.00  0.00    +0.000 A 
ATOM     18  N   UNL     1      46.085   3.730   7.044  0.00  0.00    +0.000 NA
ENDBRANCH  12  13
ENDBRANCH   9  12
ENDBRANCH   8   9
ENDBRANCH   1   8
BRANCH   6  19
ATOM     19  C   UNL     1      46.219   3.951  14.521  0.00  0.00    +0.000 C 
BRANCH  19  20
ATOM     20  N   UNL     1      47.288   4.423  15.361  0.00  0.00    +0.000 N 
ATOM     21  C   UNL     1      47.422   4.019  16.662  0.00  0.00    +0.000 C 
ATOM     22  O   UNL     1      46.630   3.240  17.189  0.00  0.00    +0.000 OA
ATOM     23  H   UNL     1      47.856   5.184  15.004  0.00  0.00    +0.000 HD
BRANCH  21  24
ATOM     24  C   UNL     1      48.603   4.503  17.387  0.00  0.00    +0.000 A 
ATOM     25  C   UNL     1      48.558   5.753  17.990  0.00  0.00    +0.000 A 
ATOM     26  S   UNL     1      49.989   6.172  18.813  0.00  0.00    +0.000 S 
ATOM     27  C   UNL     1      50.740   4.714  18.355  0.00  0.00    +0.000 A 
ATOM     28  N   UNL     1      52.024   4.453  18.715  0.00  0.00    +0.000 NA
ATOM     29  C   UNL     1      52.482   3.329  18.273  0.00  0.00    +0.000 A 
ATOM     30  N   UNL     1      51.766   2.435  17.520  0.00  0.00    +0.000 N 
ATOM     31  C   UNL     1      50.443   2.627  17.193  0.00  0.00    +0.000 A 
ATOM     32  O   UNL     1      49.797   1.755  16.618  0.00  0.00    +0.000 OA
ATOM     33  C   UNL     1      49.897   3.904  17.619  0.00  0.00    +0.000 A 
ATOM     34  H   UNL     1      52.178   1.562  17.227  0.00  0.00    +0.000 HD
ENDBRANCH  21  24
ENDBRANCH  19  20
ENDBRANCH   6  19
TORSDOF 7
ENDMDL
MODEL 2
REMARK VINA RESULT:    -8.277      2.092      2.910
REMARK INTER + INTRA:         -12.706
REMARK INTER:                 -11.417
REMARK INTRA:                  -1.289
REMARK UNBOUND:                -1.041
REMARK  Name = 
REMARK  8 active torsions:
REMARK  status: ('A' for Active; 'I' for Inactive)
REMARK    1  A    between atoms: C_1  and  C_2
REMARK    2  A    between atoms: C_2  and  N_3
REMARK    3  A    between atoms: C_2  and  C_26
REMARK    4  A    between atoms: N_3  and  C_4
REMARK    5  A    between atoms: C_4  and  C_5
REMARK    6  A    between atoms: C_10  and  C_11
REMARK    7  A    between atoms: C_11  and  N_12
REMARK    8  A    between atoms: C_13  and  C_15
REMARK                            x       y       z     vdW  Elec       q    Type
REMARK                         _______ _______ _______ _____ _____    ______ ____
ROOT
ATOM      1  C   UNL     1      44.762   6.498  11.456  0.00  0.00    +0.000 A 
ATOM      2  C   UNL     1      44.239   7.796  11.513  0.00  0.00    +0.000 A 
ATOM      3  C   UNL     1      45.065   8.867  11.836  0.00  0.00    +0.000 A 
ATOM      4  F   UNL     1      44.561  10.108  11.840  0.00  0.00    +0.000 F 
ATOM      5  C   UNL     1      46.416   8.680  12.098  0.00  0.00    +0.000 A 
ATOM      6  C   UNL     1      46.963   7.391  12.048  0.00  0.00    +0.000 A 
ATOM      7  C   UNL     1      46.121   6.303  11.761  0.00  0.00    +0.000 A 
ENDROOT
BRANCH   1   8
ATOM      8  C   UNL     1      43.942   5.379  10.855  0.00  0.00    +0.000 C 
BRANCH   8   9
ATOM      9  N   UNL     1      44.420   4.886   9.559  0.00  0.00    +0.000 NA
ATOM     10  H   UNL     1      45.124   5.544   9.216  0.00  0.00    +0.000 HD
BRANCH   9  12
ATOM     11  C   UNL     1      44.083   2.499  10.233  0.00  0.00    +0.000 C 
ATOM     12  C   UNL     1      45.071   3.559   9.720  0.00  0.00    +0.000 C 
BRANCH  12  13
ATOM     13  C   UNL     1      45.703   2.992   8.447  0.00  0.00    +0.000 A 
ATOM     14  C   UNL     1      46.125   1.666   8.361  0.00  0.00    +0.000 A 
ATOM     15  C   UNL     1      46.855   1.257   7.246  0.00  0.00    +0.000 A 
ATOM     16  C   UNL     1      47.149   2.175   6.244  0.00  0.00    +0.000 A 
ATOM     17  C   UNL     1      46.676   3.466   6.392  0.00  0.00    +0.000 A 
ATOM     18  N   UNL     1      45.963   3.890   7.458  0.00  0.00    +0.000 NA
ENDBRANCH  12  13
ENDBRANCH   9  12
ENDBRANCH   8   9
ENDBRANCH   1   8
BRANCH   6  19
ATOM     19  C   UNL     1      48.437   7.181  12.257  0.00  0.00    +0.000 C 
BRANCH  19  20
ATOM     20  N   UNL     1      48.710   6.539  13.515  0.00  0.00    +0.000 N 
ATOM     21  C   UNL     1      48.800   7.243  14.686  0.00  0.00    +0.000 C 
ATOM     22  O   UNL     1      48.663   8.463  14.726  0.00  0.00    +0.000 OA
ATOM     23  H   UNL     1      48.986   5.563  13.487  0.00  0.00    +0.000 HD
BRANCH  21  24
ATOM     24  C   UNL     1      48.996   6.462  15.914  0.00  0.00    +0.000 A 
ATOM     25  C   UNL     1      49.952   6.877  16.832  0.00  0.00    +0.000 A 
ATOM     26  S   UNL     1      50.052   5.891  18.216  0.00  0.00    +0.000 S 
ATOM     27  C   UNL     1      48.850   4.843  17.618  0.00  0.00    +0.000 A 
ATOM     28  N   UNL     1      48.478   3.742  18.322  0.00  0.00    +0.000 NA
ATOM     29  C   UNL     1      47.584   3.015  17.740  0.00  0.00    +0.000 A 
ATOM     30  N   UNL     1      47.015   3.300  16.525  0.00  0.00    +0.000 N 
ATOM     31  C   UNL     1      47.310   4.440  15.813  0.00  0.00    +0.000 A 
ATOM     32  O   UNL     1      46.699   4.725  14.787  0.00  0.00    +0.000 OA
ATOM     33  C   UNL     1      48.353   5.263  16.399  0.00  0.00    +0.000 A 
ATOM     34  H   UNL     1      46.302   2.701  16.138  0.00  0.00    +0.000 HD
ENDBRANCH  21  24
ENDBRANCH  19  20
ENDBRANCH   6  19
TORSDOF 7
ENDMDL
MODEL 3
REMARK VINA RESULT:    -8.158      1.975      2.679
REMARK INTER + INTRA:         -12.537
REMARK INTER:                 -11.550
REMARK INTRA:                  -0.987
REMARK UNBOUND:                -1.041
REMARK  Name = 
REMARK  8 active torsions:
REMARK  status: ('A' for Active; 'I' for Inactive)
REMARK    1  A    between atoms: C_1  and  C_2
REMARK    2  A    between atoms: C_2  and  N_3
REMARK    3  A    between atoms: C_2  and  C_26
REMARK    4  A    between atoms: N_3  and  C_4
REMARK    5  A    between atoms: C_4  and  C_5
REMARK    6  A    between atoms: C_10  and  C_11
REMARK    7  A    between atoms: C_11  and  N_12
REMARK    8  A    between atoms: C_13  and  C_15
REMARK                            x       y       z     vdW  Elec       q    Type
REMARK                         _______ _______ _______ _____ _____    ______ ____
ROOT
ATOM      1  C   UNL     1      44.418   5.465  11.393  0.00  0.00    +0.000 A 
ATOM      2  C   UNL     1      44.803   6.799  11.210  0.00  0.00    +0.000 A 
ATOM      3  C   UNL     1      45.772   7.366  12.032  0.00  0.00    +0.000 A 
ATOM      4  F   UNL     1      46.163   8.628  11.813  0.00  0.00    +0.000 F 
ATOM      5  C   UNL     1      46.383   6.628  13.037  0.00  0.00    +0.000 A 
ATOM      6  C   UNL     1      46.015   5.291  13.241  0.00  0.00    +0.000 A 
ATOM      7  C   UNL     1      45.007   4.730  12.438  0.00  0.00    +0.000 A 
ENDROOT
BRANCH   1   8
ATOM      8  C   UNL     1      43.571   4.774  10.351  0.00  0.00    +0.000 C 
BRANCH   8   9
ATOM      9  N   UNL     1      44.275   4.418   9.114  0.00  0.00    +0.000 NA
ATOM     10  H   UNL     1      44.916   5.184   8.890  0.00  0.00    +0.000 HD
BRANCH   9  12
ATOM     11  C   UNL     1      44.195   1.959   9.572  0.00  0.00    +0.000 C 
ATOM     12  C   UNL     1      45.084   3.187   9.315  0.00  0.00    +0.000 C 
BRANCH  12  13
ATOM     13  C   UNL     1      46.008   2.825   8.150  0.00  0.00    +0.000 A 
ATOM     14  C   UNL     1      46.247   3.706   7.097  0.00  0.00    +0.000 A 
ATOM     15  C   UNL     1      46.949   3.255   5.980  0.00  0.00    +0.000 A 
ATOM     16  C   UNL     1      47.394   1.939   5.935  0.00  0.00    +0.000 A 
ATOM     17  C   UNL     1      47.136   1.132   7.029  0.00  0.00    +0.000 A 
ATOM     18  N   UNL     1      46.464   1.542   8.126  0.00  0.00    +0.000 NA
ENDBRANCH  12  13
ENDBRANCH   9  12
ENDBRANCH   8   9
ENDBRANCH   1   8
BRANCH   6  19
ATOM     19  C   UNL     1      46.717   4.458  14.277  0.00  0.00    +0.000 C 
BRANCH  19  20
ATOM     20  N   UNL     1      47.394   5.275  15.250  0.00  0.00    +0.000 N 
ATOM     21  C   UNL     1      48.181   4.735  16.231  0.00  0.00    +0.000 C 
ATOM     22  O   UNL     1      48.344   3.522  16.344  0.00  0.00    +0.000 OA
ATOM     23  H   UNL     1      47.149   6.259  15.279  0.00  0.00    +0.000 HD
BRANCH  21  24
ATOM     24  C   UNL     1      48.886   5.678  17.107  0.00  0.00    +0.000 A 
ATOM     25  C   UNL     1      50.122   6.172  16.711  0.00  0.00    +0.000 A 
ATOM     26  S   UNL     1      50.810   7.273  17.813  0.00  0.00    +0.000 S 
ATOM     27  C   UNL     1      49.499   7.097  18.885  0.00  0.00    +0.000 A 
ATOM     28  N   UNL     1      49.481   7.759  20.072  0.00  0.00    +0.000 NA
ATOM     29  C   UNL     1      48.447   7.508  20.804  0.00  0.00    +0.000 A 
ATOM     30  N   UNL     1      47.421   6.671  20.449  0.00  0.00    +0.000 N 
ATOM     31  C   UNL     1      47.365   6.036  19.229  0.00  0.00    +0.000 A 
ATOM     32  O   UNL     1      46.379   5.386  18.895  0.00  0.00    +0.000 OA
ATOM     33  C   UNL     1      48.533   6.241  18.390  0.00  0.00    +0.000 A 
ATOM     34  H   UNL     1      46.629   6.539  21.060  0.00  0.00    +0.000 HD
ENDBRANCH  21  24
ENDBRANCH  19  20
ENDBRANCH   6  19
TORSDOF 7
ENDMDL
MODEL 4
REMARK VINA RESULT:    -8.107      4.593      7.375
REMARK INTER + INTRA:         -12.466
REMARK INTER:                 -11.072
REMARK INTRA:                  -1.394
REMARK UNBOUND:                -1.041
REMARK  Name = 
REMARK  8 active torsions:
REMARK  status: ('A' for Active; 'I' for Inactive)
REMARK    1  A    between atoms: C_1  and  C_2
REMARK    2  A    between atoms: C_2  and  N_3
REMARK    3  A    between atoms: C_2  and  C_26
REMARK    4  A    between atoms: N_3  and  C_4
REMARK    5  A    between atoms: C_4  and  C_5
REMARK    6  A    between atoms: C_10  and  C_11
REMARK    7  A    between atoms: C_11  and  N_12
REMARK    8  A    between atoms: C_13  and  C_15
REMARK                            x       y       z     vdW  Elec       q    Type
REMARK                         _______ _______ _______ _____ _____    ______ ____
ROOT
ATOM      1  C   UNL     1      45.993   4.563  13.138  0.00  0.00    +0.000 A 
ATOM      2  C   UNL     1      46.447   4.094  14.377  0.00  0.00    +0.000 A 
ATOM      3  C   UNL     1      47.410   4.807  15.083  0.00  0.00    +0.000 A 
ATOM      4  F   UNL     1      47.799   4.371  16.288  0.00  0.00    +0.000 F 
ATOM      5  C   UNL     1      47.933   5.994  14.587  0.00  0.00    +0.000 A 
ATOM      6  C   UNL     1      47.496   6.484  13.349  0.00  0.00    +0.000 A 
ATOM      7  C   UNL     1      46.553   5.743  12.616  0.00  0.00    +0.000 A 
ENDROOT
BRANCH   1   8
ATOM      8  C   UNL     1      44.772   3.944  12.497  0.00  0.00    +0.000 C 
BRANCH   8   9
ATOM      9  N   UNL     1      45.041   2.779  11.646  0.00  0.00    +0.000 NA
ATOM     10  H   UNL     1      44.594   1.968  12.080  0.00  0.00    +0.000 HD
BRANCH   9  12
ATOM     11  C   UNL     1      43.739   4.336  10.181  0.00  0.00    +0.000 C 
ATOM     12  C   UNL     1      44.437   2.972  10.302  0.00  0.00    +0.000 C 
BRANCH  12  13
ATOM     13  C   UNL     1      45.421   2.877   9.133  0.00  0.00    +0.000 A 
ATOM     14  C   UNL     1      45.779   3.993   8.379  0.00  0.00    +0.000 A 
ATOM     15  C   UNL     1      46.534   3.815   7.220  0.00  0.00    +0.000 A 
ATOM     16  C   UNL     1      46.912   2.534   6.837  0.00  0.00    +0.000 A 
ATOM     17  C   UNL     1      46.536   1.479   7.650  0.00  0.00    +0.000 A 
ATOM     18  N   UNL     1      45.810   1.621   8.781  0.00  0.00    +0.000 NA
ENDBRANCH  12  13
ENDBRANCH   9  12
ENDBRANCH   8   9
ENDBRANCH   1   8
BRANCH   6  19
ATOM     19  C   UNL     1      47.999   7.803  12.832  0.00  0.00    +0.000 C 
BRANCH  19  20
ATOM     20  N   UNL     1      46.921   8.723  12.581  0.00  0.00    +0.000 N 
ATOM     21  C   UNL     1      47.113   9.904  11.916  0.00  0.00    +0.000 C 
ATOM     22  O   UNL     1      48.219  10.250  11.507  0.00  0.00    +0.000 OA
ATOM     23  H   UNL     1      46.038   8.539  13.046  0.00  0.00    +0.000 HD
BRANCH  21  24
ATOM     24  C   UNL     1      45.918  10.714  11.647  0.00  0.00    +0.000 A 
ATOM     25  C   UNL     1      46.005  12.096  11.741  0.00  0.00    +0.000 A 
ATOM     26  S   UNL     1      44.550  12.904  11.379  0.00  0.00    +0.000 S 
ATOM     27  C   UNL     1      43.736  11.431  11.127  0.00  0.00    +0.000 A 
ATOM     28  N   UNL     1      42.413  11.414  10.814  0.00  0.00    +0.000 NA
ATOM     29  C   UNL     1      41.911  10.231  10.684  0.00  0.00    +0.000 A 
ATOM     30  N   UNL     1      42.618   9.064  10.821  0.00  0.00    +0.000 N 
ATOM     31  C   UNL     1      43.971   9.035  11.067  0.00  0.00    +0.000 A 
ATOM     32  O   UNL     1      44.595   7.978  11.069  0.00  0.00    +0.000 OA
ATOM     33  C   UNL     1      44.572  10.341  11.278  0.00  0.00    +0.000 A 
ATOM     34  H   UNL     1      42.168   8.171  10.682  0.00  0.00    +0.000 HD
ENDBRANCH  21  24
ENDBRANCH  19  20
ENDBRANCH   6  19
TORSDOF 7
ENDMDL
MODEL 5
REMARK VINA RESULT:    -8.041      2.518      3.381
REMARK INTER + INTRA:         -12.372
REMARK INTER:                 -11.282
REMARK INTRA:                  -1.091
REMARK UNBOUND:                -1.041
REMARK  Name = 
REMARK  8 active torsions:
REMARK  status: ('A' for Active; 'I' for Inactive)
REMARK    1  A    between atoms: C_1  and  C_2
REMARK    2  A    between atoms: C_2  and  N_3
REMARK    3  A    between atoms: C_2  and  C_26
REMARK    4  A    between atoms: N_3  and  C_4
REMARK    5  A    between atoms: C_4  and  C_5
REMARK    6  A    between atoms: C_10  and  C_11
REMARK    7  A    between atoms: C_11  and  N_12
REMARK    8  A    between atoms: C_13  and  C_15
REMARK                            x       y       z     vdW  Elec       q    Type
REMARK                         _______ _______ _______ _____ _____    ______ ____
ROOT
ATOM      1  C   UNL     1      45.117   6.020  12.139  0.00  0.00    +0.000 A 
ATOM      2  C   UNL     1      46.087   6.845  11.555  0.00  0.00    +0.000 A 
ATOM      3  C   UNL     1      47.387   6.850  12.050  0.00  0.00    +0.000 A 
ATOM      4  F   UNL     1      48.315   7.608  11.451  0.00  0.00    +0.000 F 
ATOM      5  C   UNL     1      47.755   6.040  13.116  0.00  0.00    +0.000 A 
ATOM      6  C   UNL     1      46.802   5.207  13.717  0.00  0.00    +0.000 A 
ATOM      7  C   UNL     1      45.479   5.231  13.245  0.00  0.00    +0.000 A 
ENDROOT
BRANCH   1   8
ATOM      8  C   UNL     1      43.788   5.814  11.450  0.00  0.00    +0.000 C 
BRANCH   8   9
ATOM      9  N   UNL     1      43.856   5.099  10.171  0.00  0.00    +0.000 NA
ATOM     10  H   UNL     1      44.341   5.702   9.502  0.00  0.00    +0.000 HD
BRANCH   9  12
ATOM     11  C   UNL     1      43.785   2.690  10.850  0.00  0.00    +0.000 C 
ATOM     12  C   UNL     1      44.647   3.849  10.320  0.00  0.00    +0.000 C 
BRANCH  12  13
ATOM     13  C   UNL     1      45.312   3.349   9.035  0.00  0.00    +0.000 A 
ATOM     14  C   UNL     1      45.610   2.002   8.835  0.00  0.00    +0.000 A 
ATOM     15  C   UNL     1      46.377   1.634   7.731  0.00  0.00    +0.000 A 
ATOM     16  C   UNL     1      46.830   2.612   6.853  0.00  0.00    +0.000 A 
ATOM     17  C   UNL     1      46.474   3.924   7.108  0.00  0.00    +0.000 A 
ATOM     18  N   UNL     1      45.729   4.311   8.166  0.00  0.00    +0.000 NA
ENDBRANCH  12  13
ENDBRANCH   9  12
ENDBRANCH   8   9
ENDBRANCH   1   8
BRANCH   6  19
ATOM     19  C   UNL     1      47.200   4.270  14.825  0.00  0.00    +0.000 C 
BRANCH  19  20
ATOM     20  N   UNL     1      47.171   4.920  16.108  0.00  0.00    +0.000 N 
ATOM     21  C   UNL     1      48.304   5.406  16.703  0.00  0.00    +0.000 C 
ATOM     22  O   UNL     1      49.411   5.304  16.180  0.00  0.00    +0.000 OA
ATOM     23  H   UNL     1      46.302   4.873  16.631  0.00  0.00    +0.000 HD
BRANCH  21  24
ATOM     24  C   UNL     1      48.129   6.124  17.971  0.00  0.00    +0.000 A 
ATOM     25  C   UNL     1      47.896   5.397  19.132  0.00  0.00    +0.000 A 
ATOM     26  S   UNL     1      47.737   6.360  20.527  0.00  0.00    +0.000 S 
ATOM     27  C   UNL     1      47.929   7.790  19.625  0.00  0.00    +0.000 A 
ATOM     28  N   UNL     1      47.860   9.006  20.229  0.00  0.00    +0.000 NA
ATOM     29  C   UNL     1      47.987  10.008  19.424  0.00  0.00    +0.000 A 
ATOM     30  N   UNL     1      48.196   9.903  18.072  0.00  0.00    +0.000 N 
ATOM     31  C   UNL     1      48.342   8.695  17.432  0.00  0.00    +0.000 A 
ATOM     32  O   UNL     1      48.643   8.637  16.243  0.00  0.00    +0.000 OA
ATOM     33  C   UNL     1      48.151   7.535  18.285  0.00  0.00    +0.000 A 
ATOM     34  H   UNL     1      48.311  10.729  17.504  0.00  0.00    +0.000 HD
ENDBRANCH  21  24
ENDBRANCH  19  20
ENDBRANCH   6  19
TORSDOF 7
ENDMDL
MODEL 6
REMARK VINA RESULT:    -7.963      4.329      7.267
REMARK INTER + INTRA:         -12.262
REMARK INTER:                 -10.403
REMARK INTRA:                  -1.859
REMARK UNBOUND:                -1.041
REMARK  Name = 
REMARK  8 active torsions:
REMARK  status: ('A' for Active; 'I' for Inactive)
REMARK    1  A    between atoms: C_1  and  C_2
REMARK    2  A    between atoms: C_2  and  N_3
REMARK    3  A    between atoms: C_2  and  C_26
REMARK    4  A    between atoms: N_3  and  C_4
REMARK    5  A    between atoms: C_4  and  C_5
REMARK    6  A    between atoms: C_10  and  C_11
REMARK    7  A    between atoms: C_11  and  N_12
REMARK    8  A    between atoms: C_13  and  C_15
REMARK                            x       y       z     vdW  Elec       q    Type
REMARK                         _______ _______ _______ _____ _____    ______ ____
ROOT
ATOM      1  C   UNL     1      46.971   4.830  14.105  0.00  0.00    +0.000 A 
ATOM      2  C   UNL     1      47.288   4.375  15.391  0.00  0.00    +0.000 A 
ATOM      3  C   UNL     1      48.103   5.138  16.221  0.00  0.00    +0.000 A 
ATOM      4  F   UNL     1      48.357   4.712  17.465  0.00  0.00    +0.000 F 
ATOM      5  C   UNL     1      48.608   6.363  15.803  0.00  0.00    +0.000 A 
ATOM      6  C   UNL     1      48.306   6.839  14.521  0.00  0.00    +0.000 A 
ATOM      7  C   UNL     1      47.517   6.050  13.667  0.00  0.00    +0.000 A 
ENDROOT
BRANCH   1   8
ATOM      8  C   UNL     1      45.888   4.142  13.306  0.00  0.00    +0.000 C 
BRANCH   8   9
ATOM      9  N   UNL     1      44.816   5.022  12.829  0.00  0.00    +0.000 NA
ATOM     10  H   UNL     1      45.249   5.777  12.291  0.00  0.00    +0.000 HD
BRANCH   9  12
ATOM     11  C   UNL     1      42.649   5.099  11.578  0.00  0.00    +0.000 C 
ATOM     12  C   UNL     1      43.902   4.278  11.922  0.00  0.00    +0.000 C 
BRANCH  12  13
ATOM     13  C   UNL     1      44.524   3.847  10.592  0.00  0.00    +0.000 A 
ATOM     14  C   UNL     1      45.121   4.762   9.726  0.00  0.00    +0.000 A 
ATOM     15  C   UNL     1      45.505   4.341   8.454  0.00  0.00    +0.000 A 
ATOM     16  C   UNL     1      45.286   3.023   8.071  0.00  0.00    +0.000 A 
ATOM     17  C   UNL     1      44.708   2.170   8.995  0.00  0.00    +0.000 A 
ATOM     18  N   UNL     1      44.330   2.547  10.236  0.00  0.00    +0.000 NA
ENDBRANCH  12  13
ENDBRANCH   9  12
ENDBRANCH   8   9
ENDBRANCH   1   8
BRANCH   6  19
ATOM     19  C   UNL     1      48.786   8.195  14.081  0.00  0.00    +0.000 C 
BRANCH  19  20
ATOM     20  N   UNL     1      47.706   9.006  13.584  0.00  0.00    +0.000 N 
ATOM     21  C   UNL     1      47.774   9.646  12.375  0.00  0.00    +0.000 C 
ATOM     22  O   UNL     1      48.766   9.571  11.652  0.00  0.00    +0.000 OA
ATOM     23  H   UNL     1      46.949   9.215  14.227  0.00  0.00    +0.000 HD
BRANCH  21  24
ATOM     24  C   UNL     1      46.574  10.371  11.942  0.00  0.00    +0.000 A 
ATOM     25  C   UNL     1      46.604  11.759  11.900  0.00  0.00    +0.000 A 
ATOM     26  S   UNL     1      45.151  12.463  11.357  0.00  0.00    +0.000 S 
ATOM     27  C   UNL     1      44.411  10.937  11.201  0.00  0.00    +0.000 A 
ATOM     28  N   UNL     1      43.117  10.833  10.800  0.00  0.00    +0.000 NA
ATOM     29  C   UNL     1      42.669   9.622  10.758  0.00  0.00    +0.000 A 
ATOM     30  N   UNL     1      43.405   8.506  11.062  0.00  0.00    +0.000 N 
ATOM     31  C   UNL     1      44.737   8.560  11.403  0.00  0.00    +0.000 A 
ATOM     32  O   UNL     1      45.397   7.537  11.556  0.00  0.00    +0.000 OA
ATOM     33  C   UNL     1      45.273   9.905  11.520  0.00  0.00    +0.000 A 
ATOM     34  H   UNL     1      43.000   7.585  10.984  0.00  0.00    +0.000 HD
ENDBRANCH  21  24
ENDBRANCH  19  20
ENDBRANCH   6  19
TORSDOF 7
ENDMDL
MODEL 7
REMARK VINA RESULT:    -7.835      3.793      9.411
REMARK INTER + INTRA:         -12.082
REMARK INTER:                 -10.578
REMARK INTRA:                  -1.504
REMARK UNBOUND:                -1.041
REMARK  Name = 
REMARK  8 active torsions:
REMARK  status: ('A' for Active; 'I' for Inactive)
REMARK    1  A    between atoms: C_1  and  C_2
REMARK    2  A    between atoms: C_2  and  N_3
REMARK    3  A    between atoms: C_2  and  C_26
REMARK    4  A    between atoms: N_3  and  C_4
REMARK    5  A    between atoms: C_4  and  C_5
REMARK    6  A    between atoms: C_10  and  C_11
REMARK    7  A    between atoms: C_11  and  N_12
REMARK    8  A    between atoms: C_13  and  C_15
REMARK                            x       y       z     vdW  Elec       q    Type
REMARK                         _______ _______ _______ _____ _____    ______ ____
ROOT
ATOM      1  C   UNL     1      49.357   5.106  19.175  0.00  0.00    +0.000 A 
ATOM      2  C   UNL     1      48.618   3.919  19.088  0.00  0.00    +0.000 A 
ATOM      3  C   UNL     1      47.941   3.602  17.915  0.00  0.00    +0.000 A 
ATOM      4  F   UNL     1      47.279   2.441  17.832  0.00  0.00    +0.000 F 
ATOM      5  C   UNL     1      47.989   4.440  16.809  0.00  0.00    +0.000 A 
ATOM      6  C   UNL     1      48.721   5.633  16.871  0.00  0.00    +0.000 A 
ATOM      7  C   UNL     1      49.371   5.974  18.069  0.00  0.00    +0.000 A 
ENDROOT
BRANCH   1   8
ATOM      8  C   UNL     1      50.298   5.326  20.337  0.00  0.00    +0.000 C 
BRANCH   8   9
ATOM      9  N   UNL     1      51.444   4.412  20.390  0.00  0.00    +0.000 NA
ATOM     10  H   UNL     1      51.079   3.460  20.476  0.00  0.00    +0.000 HD
BRANCH   9  12
ATOM     11  C   UNL     1      53.570   5.213  19.339  0.00  0.00    +0.000 C 
ATOM     12  C   UNL     1      52.227   4.492  19.130  0.00  0.00    +0.000 C 
BRANCH  12  13
ATOM     13  C   UNL     1      52.549   3.143  18.483  0.00  0.00    +0.000 A 
ATOM     14  C   UNL     1      51.620   2.461  17.699  0.00  0.00    +0.000 A 
ATOM     15  C   UNL     1      51.903   1.159  17.289  0.00  0.00    +0.000 A 
ATOM     16  C   UNL     1      53.100   0.565  17.669  0.00  0.00    +0.000 A 
ATOM     17  C   UNL     1      53.980   1.314  18.429  0.00  0.00    +0.000 A 
ATOM     18  N   UNL     1      53.736   2.578  18.837  0.00  0.00    +0.000 NA
ENDBRANCH  12  13
ENDBRANCH   9  12
ENDBRANCH   8   9
ENDBRANCH   1   8
BRANCH   6  19
ATOM     19  C   UNL     1      48.842   6.516  15.659  0.00  0.00    +0.000 C 
BRANCH  19  20
ATOM     20  N   UNL     1      47.673   6.438  14.824  0.00  0.00    +0.000 N 
ATOM     21  C   UNL     1      47.757   6.228  13.473  0.00  0.00    +0.000 C 
ATOM     22  O   UNL     1      48.836   6.107  12.898  0.00  0.00    +0.000 OA
ATOM     23  H   UNL     1      46.785   6.694  15.244  0.00  0.00    +0.000 HD
BRANCH  21  24
ATOM     24  C   UNL     1      46.490   6.082  12.747  0.00  0.00    +0.000 A 
ATOM     25  C   UNL     1      45.917   7.201  12.157  0.00  0.00    +0.000 A 
ATOM     26  S   UNL     1      44.465   6.876  11.330  0.00  0.00    +0.000 S 
ATOM     27  C   UNL     1      44.524   5.232  11.767  0.00  0.00    +0.000 A 
ATOM     28  N   UNL     1      43.532   4.380  11.396  0.00  0.00    +0.000 NA
ATOM     29  C   UNL     1      43.682   3.170  11.823  0.00  0.00    +0.000 A 
ATOM     30  N   UNL     1      44.745   2.732  12.571  0.00  0.00    +0.000 N 
ATOM     31  C   UNL     1      45.804   3.542  12.909  0.00  0.00    +0.000 A 
ATOM     32  O   UNL     1      46.794   3.092  13.478  0.00  0.00    +0.000 OA
ATOM     33  C   UNL     1      45.655   4.928  12.500  0.00  0.00    +0.000 A 
ATOM     34  H   UNL     1      44.812   1.765  12.852  0.00  0.00    +0.000 HD
ENDBRANCH  21  24
ENDBRANCH  19  20
ENDBRANCH   6  19
TORSDOF 7
ENDMDL
MODEL 8
REMARK VINA RESULT:    -7.670      5.776      8.884
REMARK INTER + INTRA:         -11.850
REMARK INTER:                 -10.887
REMARK INTRA:                  -0.963
REMARK UNBOUND:                -1.041
REMARK  Name = 
REMARK  8 active torsions:
REMARK  status: ('A' for Active; 'I' for Inactive)
REMARK    1  A    between atoms: C_1  and  C_2
REMARK    2  A    between atoms: C_2  and  N_3
REMARK    3  A    between atoms: C_2  and  C_26
REMARK    4  A    between atoms: N_3  and  C_4
REMARK    5  A    between atoms: C_4  and  C_5
REMARK    6  A    between atoms: C_10  and  C_11
REMARK    7  A    between atoms: C_11  and  N_12
REMARK    8  A    between atoms: C_13  and  C_15
REMARK                            x       y       z     vdW  Elec       q    Type
REMARK                         _______ _______ _______ _____ _____    ______ ____
ROOT
ATOM      1  C   UNL     1      44.696   5.334  11.280  0.00  0.00    +0.000 A 
ATOM      2  C   UNL     1      45.294   4.592  12.306  0.00  0.00    +0.000 A 
ATOM      3  C   UNL     1      46.037   5.235  13.291  0.00  0.00    +0.000 A 
ATOM      4  F   UNL     1      46.562   4.517  14.292  0.00  0.00    +0.000 F 
ATOM      5  C   UNL     1      46.193   6.615  13.287  0.00  0.00    +0.000 A 
ATOM      6  C   UNL     1      45.606   7.380  12.271  0.00  0.00    +0.000 A 
ATOM      7  C   UNL     1      44.889   6.727  11.253  0.00  0.00    +0.000 A 
ENDROOT
BRANCH   1   8
ATOM      8  C   UNL     1      43.682   4.682  10.369  0.00  0.00    +0.000 C 
BRANCH   8   9
ATOM      9  N   UNL     1      44.205   4.245   9.069  0.00  0.00    +0.000 NA
ATOM     10  H   UNL     1      44.776   5.006   8.692  0.00  0.00    +0.000 HD
BRANCH   9  12
ATOM     11  C   UNL     1      44.259   1.769   9.430  0.00  0.00    +0.000 C 
ATOM     12  C   UNL     1      45.079   3.055   9.238  0.00  0.00    +0.000 C 
BRANCH  12  13
ATOM     13  C   UNL     1      46.043   2.793   8.078  0.00  0.00    +0.000 A 
ATOM     14  C   UNL     1      46.251   3.730   7.067  0.00  0.00    +0.000 A 
ATOM     15  C   UNL     1      46.996   3.365   5.946  0.00  0.00    +0.000 A 
ATOM     16  C   UNL     1      47.514   2.078   5.856  0.00  0.00    +0.000 A 
ATOM     17  C   UNL     1      47.282   1.213   6.910  0.00  0.00    +0.000 A 
ATOM     18  N   UNL     1      46.569   1.539   8.010  0.00  0.00    +0.000 NA
ENDBRANCH  12  13
ENDBRANCH   9  12
ENDBRANCH   8   9
ENDBRANCH   1   8
BRANCH   6  19
ATOM     19  C   UNL     1      45.705   8.880  12.292  0.00  0.00    +0.000 C 
BRANCH  19  20
ATOM     20  N   UNL     1      44.778   9.489  11.375  0.00  0.00    +0.000 N 
ATOM     21  C   UNL     1      44.569  10.841  11.343  0.00  0.00    +0.000 C 
ATOM     22  O   UNL     1      45.153  11.610  12.104  0.00  0.00    +0.000 OA
ATOM     23  H   UNL     1      44.169   8.868  10.852  0.00  0.00    +0.000 HD
BRANCH  21  24
ATOM     24  C   UNL     1      43.664  11.346  10.304  0.00  0.00    +0.000 A 
ATOM     25  C   UNL     1      44.123  11.440   8.997  0.00  0.00    +0.000 A 
ATOM     26  S   UNL     1      42.958  12.019   7.898  0.00  0.00    +0.000 S 
ATOM     27  C   UNL     1      41.808  12.209   9.138  0.00  0.00    +0.000 A 
ATOM     28  N   UNL     1      40.574  12.711   8.868  0.00  0.00    +0.000 NA
ATOM     29  C   UNL     1      39.812  12.836   9.904  0.00  0.00    +0.000 A 
ATOM     30  N   UNL     1      40.167  12.486  11.181  0.00  0.00    +0.000 N 
ATOM     31  C   UNL     1      41.378  11.909  11.488  0.00  0.00    +0.000 A 
ATOM     32  O   UNL     1      41.619  11.500  12.620  0.00  0.00    +0.000 OA
ATOM     33  C   UNL     1      42.293  11.799  10.366  0.00  0.00    +0.000 A 
ATOM     34  H   UNL     1      39.512  12.587  11.943  0.00  0.00    +0.000 HD
ENDBRANCH  21  24
ENDBRANCH  19  20
ENDBRANCH   6  19
TORSDOF 7
ENDMDL
MODEL 9
REMARK VINA RESULT:    -7.587      4.421      5.751
REMARK INTER + INTRA:         -11.732
REMARK INTER:                 -10.477
REMARK INTRA:                  -1.256
REMARK UNBOUND:                -1.041
REMARK  Name = 
REMARK  8 active torsions:
REMARK  status: ('A' for Active; 'I' for Inactive)
REMARK    1  A    between atoms: C_1  and  C_2
REMARK    2  A    between atoms: C_2  and  N_3
REMARK    3  A    between atoms: C_2  and  C_26
REMARK    4  A    between atoms: N_3  and  C_4
REMARK    5  A    between atoms: C_4  and  C_5
REMARK    6  A    between atoms: C_10  and  C_11
REMARK    7  A    between atoms: C_11  and  N_12
REMARK    8  A    between atoms: C_13  and  C_15
REMARK                            x       y       z     vdW  Elec       q    Type
REMARK                         _______ _______ _______ _____ _____    ______ ____
ROOT
ATOM      1  C   UNL     1      45.371   4.558  12.264  0.00  0.00    +0.000 A 
ATOM      2  C   UNL     1      46.161   4.078  13.317  0.00  0.00    +0.000 A 
ATOM      3  C   UNL     1      46.975   4.950  14.032  0.00  0.00    +0.000 A 
ATOM      4  F   UNL     1      47.687   4.485  15.067  0.00  0.00    +0.000 F 
ATOM      5  C   UNL     1      47.018   6.305  13.730  0.00  0.00    +0.000 A 
ATOM      6  C   UNL     1      46.238   6.810  12.681  0.00  0.00    +0.000 A 
ATOM      7  C   UNL     1      45.446   5.922  11.931  0.00  0.00    +0.000 A 
ENDROOT
BRANCH   1   8
ATOM      8  C   UNL     1      44.300   3.678  11.662  0.00  0.00    +0.000 C 
BRANCH   8   9
ATOM      9  N   UNL     1      44.796   2.573  10.835  0.00  0.00    +0.000 NA
ATOM     10  H   UNL     1      44.318   1.720  11.137  0.00  0.00    +0.000 HD
BRANCH   9  12
ATOM     11  C   UNL     1      44.015   4.256   9.155  0.00  0.00    +0.000 C 
ATOM     12  C   UNL     1      44.461   2.806   9.406  0.00  0.00    +0.000 C 
BRANCH  12  13
ATOM     13  C   UNL     1      45.598   2.520   8.422  0.00  0.00    +0.000 A 
ATOM     14  C   UNL     1      45.999   3.454   7.468  0.00  0.00    +0.000 A 
ATOM     15  C   UNL     1      46.912   3.071   6.486  0.00  0.00    +0.000 A 
ATOM     16  C   UNL     1      47.401   1.770   6.473  0.00  0.00    +0.000 A 
ATOM     17  C   UNL     1      46.971   0.908   7.467  0.00  0.00    +0.000 A 
ATOM     18  N   UNL     1      46.093   1.252   8.434  0.00  0.00    +0.000 NA
ENDBRANCH  12  13
ENDBRANCH   9  12
ENDBRANCH   8   9
ENDBRANCH   1   8
BRANCH   6  19
ATOM     19  C   UNL     1      46.218   8.284  12.388  0.00  0.00    +0.000 C 
BRANCH  19  20
ATOM     20  N   UNL     1      47.442   8.722  11.773  0.00  0.00    +0.000 N 
ATOM     21  C   UNL     1      48.223   9.703  12.324  0.00  0.00    +0.000 C 
ATOM     22  O   UNL     1      47.915  10.271  13.369  0.00  0.00    +0.000 OA
ATOM     23  H   UNL     1      47.634   8.387  10.834  0.00  0.00    +0.000 HD
BRANCH  21  24
ATOM     24  C   UNL     1      49.490   9.999  11.646  0.00  0.00    +0.000 A 
ATOM     25  C   UNL     1      49.790  11.315  11.320  0.00  0.00    +0.000 A 
ATOM     26  S   UNL     1      51.301  11.509  10.560  0.00  0.00    +0.000 S 
ATOM     27  C   UNL     1      51.592   9.832  10.596  0.00  0.00    +0.000 A 
ATOM     28  N   UNL     1      52.728   9.314  10.057  0.00  0.00    +0.000 NA
ATOM     29  C   UNL     1      52.807   8.026  10.120  0.00  0.00    +0.000 A 
ATOM     30  N   UNL     1      51.862   7.212  10.690  0.00  0.00    +0.000 N 
ATOM     31  C   UNL     1      50.733   7.699  11.309  0.00  0.00    +0.000 A 
ATOM     32  O   UNL     1      49.966   6.954  11.911  0.00  0.00    +0.000 OA
ATOM     33  C   UNL     1      50.569   9.139  11.215  0.00  0.00    +0.000 A 
ATOM     34  H   UNL     1      51.998   6.213  10.728  0.00  0.00    +0.000 HD
ENDBRANCH  21  24
ENDBRANCH  19  20
ENDBRANCH   6  19
TORSDOF 7
ENDMDL
