MODEL 1
REMARK VINA RESULT:    -8.145      0.000      0.000
REMARK INTER + INTRA:         -12.558
REMARK INTER:                 -11.478
REMARK INTRA:                  -1.079
REMARK UNBOUND:                -1.079
REMARK  Name = 
REMARK  7 active torsions:
REMARK  status: ('A' for Active; 'I' for Inactive)
REMARK    1  A    between atoms: C_2  and  C_4
REMARK    2  A    between atoms: C_7  and  O_8
REMARK    3  A    between atoms: O_8  and  C_9
REMARK    4  A    between atoms: C_9  and  C_10
REMARK    5  A    between atoms: C_10  and  C_11
REMARK    6  A    between atoms: C_15  and  O_16
REMARK    7  A    between atoms: O_16  and  C_17
REMARK                            x       y       z     vdW  Elec       q    Type
REMARK                         _______ _______ _______ _____ _____    ______ ____
ROOT
ATOM      1  C   UNL     1      43.309   4.736  10.967  0.00  0.00    +0.000 C 
ENDROOT
BRANCH   1   2
ATOM      2  O   UNL     1      43.520   3.394  10.513  0.00  0.00    +0.000 OA
BRANCH   2   6
ATOM      3  C   UNL     1      46.365   2.614   7.649  0.00  0.00    +0.000 A 
ATOM      4  C   UNL     1      45.932   3.929   7.753  0.00  0.00    +0.000 A 
ATOM      5  C   UNL     1      44.964   4.239   8.707  0.00  0.00    +0.000 A 
ATOM      6  C   UNL     1      44.459   3.234   9.532  0.00  0.00    +0.000 A 
ATOM      7  C   UNL     1      44.955   1.945   9.345  0.00  0.00    +0.000 A 
ATOM      8  N   UNL     1      45.893   1.601   8.426  0.00  0.00    +0.000 NA
BRANCH   3  10
ATOM      9  N   UNL     1      47.474   3.088   5.546  0.00  0.00    +0.000 N 
ATOM     10  C   UNL     1      47.409   2.265   6.635  0.00  0.00    +0.000 C 
ATOM     11  O   UNL     1      48.162   1.308   6.765  0.00  0.00    +0.000 OA
ATOM     12  H   UNL     1      48.157   2.909   4.826  0.00  0.00    +0.000 HD
ATOM     13  H   UNL     1      46.837   3.876   5.474  0.00  0.00    +0.000 HD
ENDBRANCH   3  10
ENDBRANCH   2   6
ENDBRANCH   1   2
BRANCH   1  14
ATOM     14  C   UNL     1      43.715   4.850  12.436  0.00  0.00    +0.000 C 
BRANCH  14  15
ATOM     15  C   UNL     1      45.134   5.346  12.564  0.00  0.00    +0.000 A 
ATOM     16  C   UNL     1      45.658   6.260  11.643  0.00  0.00    +0.000 A 
ATOM     17  C   UNL     1      46.950   6.764  11.808  0.00  0.00    +0.000 A 
ATOM     18  C   UNL     1      47.733   6.364  12.893  0.00  0.00    +0.000 A 
ATOM     19  C   UNL     1      47.224   5.451  13.812  0.00  0.00    +0.000 A 
ATOM     20  C   UNL     1      45.928   4.950  13.651  0.00  0.00    +0.000 A 
BRANCH  19  21
ATOM     21  O   UNL     1      47.887   5.016  14.932  0.00  0.00    +0.000 OA
BRANCH  21  22
ATOM     22  C   UNL     1      47.206   4.133  15.853  0.00  0.00    +0.000 C 
ATOM     23  C   UNL     1      47.213   4.537  17.345  0.00  0.00    +0.000 C 
ATOM     24  C   UNL     1      47.654   3.113  17.710  0.00  0.00    +0.000 C 
ATOM     25  C   UNL     1      48.027   2.882  16.241  0.00  0.00    +0.000 C 
ENDBRANCH  21  22
ENDBRANCH  19  21
ENDBRANCH  14  15
ENDBRANCH   1  14
TORSDOF 7
ENDMDL
MODEL 2
REMARK VINA RESULT:    -7.363      1.498      1.883
REMARK INTER + INTRA:         -11.456
REMARK INTER:                 -10.570
REMARK INTRA:                  -0.886
REMARK UNBOUND:                -1.079
REMARK  Name = 
REMARK  7 active torsions:
REMARK  status: ('A' for Active; 'I' for Inactive)
REMARK    1  A    between atoms: C_2  and  C_4
REMARK    2  A    between atoms: C_7  and  O_8
REMARK    3  A    between atoms: O_8  and  C_9
REMARK    4  A    between atoms: C_9  and  C_10
REMARK    5  A    between atoms: C_10  and  C_11
REMARK    6  A    between atoms: C_15  and  O_16
REMARK    7  A    between atoms: O_16  and  C_17
REMARK                            x       y       z     vdW  Elec       q    Type
REMARK                         _______ _______ _______ _____ _____    ______ ____
ROOT
ATOM      1  C   UNL     1      43.716   5.040  10.879  0.00  0.00    +0.000 C 
ENDROOT
BRANCH   1   2
ATOM      2  O   UNL     1      43.492   3.759  10.279  0.00  0.00    +0.000 OA
BRANCH   2   6
ATOM      3  C   UNL     1      46.407   2.752   7.560  0.00  0.00    +0.000 A 
ATOM      4  C   UNL     1      45.896   1.719   8.334  0.00  0.00    +0.000 A 
ATOM      5  C   UNL     1      44.910   2.015   9.274  0.00  0.00    +0.000 A 
ATOM      6  C   UNL     1      44.457   3.327   9.411  0.00  0.00    +0.000 A 
ATOM      7  C   UNL     1      45.037   4.292   8.590  0.00  0.00    +0.000 A 
ATOM      8  N   UNL     1      46.002   4.047   7.667  0.00  0.00    +0.000 NA
BRANCH   3  10
ATOM      9  N   UNL     1      47.349   3.121   5.357  0.00  0.00    +0.000 N 
ATOM     10  C   UNL     1      47.462   2.450   6.542  0.00  0.00    +0.000 C 
ATOM     11  O   UNL     1      48.372   1.656   6.749  0.00  0.00    +0.000 OA
ATOM     12  H   UNL     1      48.030   2.964   4.629  0.00  0.00    +0.000 HD
ATOM     13  H   UNL     1      46.586   3.776   5.222  0.00  0.00    +0.000 HD
ENDBRANCH   3  10
ENDBRANCH   2   6
ENDBRANCH   1   2
BRANCH   1  14
ATOM     14  C   UNL     1      44.224   4.854  12.309  0.00  0.00    +0.000 C 
BRANCH  14  15
ATOM     15  C   UNL     1      45.594   5.464  12.475  0.00  0.00    +0.000 A 
ATOM     16  C   UNL     1      46.096   6.365  11.528  0.00  0.00    +0.000 A 
ATOM     17  C   UNL     1      47.337   6.975  11.726  0.00  0.00    +0.000 A 
ATOM     18  C   UNL     1      48.090   6.695  12.868  0.00  0.00    +0.000 A 
ATOM     19  C   UNL     1      47.603   5.797  13.813  0.00  0.00    +0.000 A 
ATOM     20  C   UNL     1      46.358   5.189  13.620  0.00  0.00    +0.000 A 
BRANCH  19  21
ATOM     21  O   UNL     1      48.237   5.475  14.987  0.00  0.00    +0.000 OA
BRANCH  21  22
ATOM     22  C   UNL     1      48.654   6.538  15.874  0.00  0.00    +0.000 C 
ATOM     23  C   UNL     1      50.170   6.829  15.953  0.00  0.00    +0.000 C 
ATOM     24  C   UNL     1      50.077   6.804  17.485  0.00  0.00    +0.000 C 
ATOM     25  C   UNL     1      48.708   6.124  17.363  0.00  0.00    +0.000 C 
ENDBRANCH  21  22
ENDBRANCH  19  21
ENDBRANCH  14  15
ENDBRANCH   1  14
TORSDOF 7
ENDMDL
MODEL 3
REMARK VINA RESULT:    -7.196      1.834      3.598
REMARK INTER + INTRA:         -11.219
REMARK INTER:                 -10.184
REMARK INTRA:                  -1.036
REMARK UNBOUND:                -1.079
REMARK  Name = 
REMARK  7 active torsions:
REMARK  status: ('A' for Active; 'I' for Inactive)
REMARK    1  A    between atoms: C_2  and  C_4
REMARK    2  A    between atoms: C_7  and  O_8
REMARK    3  A    between atoms: O_8  and  C_9
REMARK    4  A    between atoms: C_9  and  C_10
REMARK    5  A    between atoms: C_10  and  C_11
REMARK    6  A    between atoms: C_15  and  O_16
REMARK    7  A    between atoms: O_16  and  C_17
REMARK                            x       y       z     vdW  Elec       q    Type
REMARK                         _______ _______ _______ _____ _____    ______ ____
ROOT
ATOM      1  C   UNL     1      43.462   5.201  10.605  0.00  0.00    +0.000 C 
ENDROOT
BRANCH   1   2
ATOM      2  O   UNL     1      43.545   3.783  10.422  0.00  0.00    +0.000 OA
BRANCH   2   6
ATOM      3  C   UNL     1      46.377   2.771   7.618  0.00  0.00    +0.000 A 
ATOM      4  C   UNL     1      45.838   1.729   8.362  0.00  0.00    +0.000 A 
ATOM      5  C   UNL     1      44.879   2.026   9.328  0.00  0.00    +0.000 A 
ATOM      6  C   UNL     1      44.479   3.348   9.523  0.00  0.00    +0.000 A 
ATOM      7  C   UNL     1      45.083   4.322   8.728  0.00  0.00    +0.000 A 
ATOM      8  N   UNL     1      46.023   4.075   7.781  0.00  0.00    +0.000 NA
BRANCH   3  10
ATOM      9  N   UNL     1      47.328   3.222   5.434  0.00  0.00    +0.000 N 
ATOM     10  C   UNL     1      47.403   2.468   6.571  0.00  0.00    +0.000 C 
ATOM     11  O   UNL     1      48.260   1.604   6.717  0.00  0.00    +0.000 OA
ATOM     12  H   UNL     1      47.992   3.069   4.690  0.00  0.00    +0.000 HD
ATOM     13  H   UNL     1      46.608   3.934   5.350  0.00  0.00    +0.000 HD
ENDBRANCH   3  10
ENDBRANCH   2   6
ENDBRANCH   1   2
BRANCH   1  14
ATOM     14  C   UNL     1      43.556   5.532  12.094  0.00  0.00    +0.000 C 
BRANCH  14  15
ATOM     15  C   UNL     1      44.996   5.631  12.533  0.00  0.00    +0.000 A 
ATOM     16  C   UNL     1      45.504   4.778  13.520  0.00  0.00    +0.000 A 
ATOM     17  C   UNL     1      46.855   4.834  13.871  0.00  0.00    +0.000 A 
ATOM     18  C   UNL     1      47.713   5.740  13.244  0.00  0.00    +0.000 A 
ATOM     19  C   UNL     1      47.217   6.598  12.266  0.00  0.00    +0.000 A 
ATOM     20  C   UNL     1      45.865   6.538  11.908  0.00  0.00    +0.000 A 
BRANCH  19  21
ATOM     21  O   UNL     1      47.972   7.499  11.559  0.00  0.00    +0.000 OA
BRANCH  21  22
ATOM     22  C   UNL     1      48.765   8.469  12.280  0.00  0.00    +0.000 C 
ATOM     23  C   UNL     1      48.000   9.489  13.153  0.00  0.00    +0.000 C 
ATOM     24  C   UNL     1      48.821  10.621  12.521  0.00  0.00    +0.000 C 
ATOM     25  C   UNL     1      49.247   9.653  11.410  0.00  0.00    +0.000 C 
ENDBRANCH  21  22
ENDBRANCH  19  21
ENDBRANCH  14  15
ENDBRANCH   1  14
TORSDOF 7
ENDMDL
MODEL 4
REMARK VINA RESULT:    -7.129      2.253      4.164
REMARK INTER + INTRA:         -11.126
REMARK INTER:                 -10.175
REMARK INTRA:                  -0.951
REMARK UNBOUND:                -1.079
REMARK  Name = 
REMARK  7 active torsions:
REMARK  status: ('A' for Active; 'I' for Inactive)
REMARK    1  A    between atoms: C_2  and  C_4
REMARK    2  A    between atoms: C_7  and  O_8
REMARK    3  A    between atoms: O_8  and  C_9
REMARK    4  A    between atoms: C_9  and  C_10
REMARK    5  A    between atoms: C_10  and  C_11
REMARK    6  A    between atoms: C_15  and  O_16
REMARK    7  A    between atoms: O_16  and  C_17
REMARK                            x       y       z     vdW  Elec       q    Type
REMARK                         _______ _______ _______ _____ _____    ______ ____
ROOT
ATOM      1  C   UNL     1      43.545   4.467  11.471  0.00  0.00    +0.000 C 
ENDROOT
BRANCH   1   2
ATOM      2  O   UNL     1      43.423   3.341  10.595  0.00  0.00    +0.000 OA
BRANCH   2   6
ATOM      3  C   UNL     1      46.322   2.685   7.755  0.00  0.00    +0.000 A 
ATOM      4  C   UNL     1      45.947   4.005   7.966  0.00  0.00    +0.000 A 
ATOM      5  C   UNL     1      44.963   4.274   8.916  0.00  0.00    +0.000 A 
ATOM      6  C   UNL     1      44.386   3.225   9.631  0.00  0.00    +0.000 A 
ATOM      7  C   UNL     1      44.829   1.935   9.342  0.00  0.00    +0.000 A 
ATOM      8  N   UNL     1      45.780   1.630   8.423  0.00  0.00    +0.000 NA
BRANCH   3  10
ATOM      9  N   UNL     1      47.357   3.142   5.611  0.00  0.00    +0.000 N 
ATOM     10  C   UNL     1      47.383   2.379   6.744  0.00  0.00    +0.000 C 
ATOM     11  O   UNL     1      48.225   1.504   6.913  0.00  0.00    +0.000 OA
ATOM     12  H   UNL     1      48.046   2.988   4.890  0.00  0.00    +0.000 HD
ATOM     13  H   UNL     1      46.649   3.862   5.507  0.00  0.00    +0.000 HD
ENDBRANCH   3  10
ENDBRANCH   2   6
ENDBRANCH   1   2
BRANCH   1  14
ATOM     14  C   UNL     1      44.547   4.147  12.580  0.00  0.00    +0.000 C 
BRANCH  14  15
ATOM     15  C   UNL     1      45.486   5.307  12.807  0.00  0.00    +0.000 A 
ATOM     16  C   UNL     1      46.864   5.098  12.934  0.00  0.00    +0.000 A 
ATOM     17  C   UNL     1      47.730   6.184  13.077  0.00  0.00    +0.000 A 
ATOM     18  C   UNL     1      47.233   7.489  13.096  0.00  0.00    +0.000 A 
ATOM     19  C   UNL     1      45.863   7.708  12.977  0.00  0.00    +0.000 A 
ATOM     20  C   UNL     1      44.995   6.622  12.827  0.00  0.00    +0.000 A 
BRANCH  19  21
ATOM     21  O   UNL     1      45.268   8.944  12.944  0.00  0.00    +0.000 OA
BRANCH  21  22
ATOM     22  C   UNL     1      45.282   9.698  11.711  0.00  0.00    +0.000 C 
ATOM     23  C   UNL     1      46.132  10.989  11.689  0.00  0.00    +0.000 C 
ATOM     24  C   UNL     1      44.938  11.744  11.090  0.00  0.00    +0.000 C 
ATOM     25  C   UNL     1      44.029  10.581  11.505  0.00  0.00    +0.000 C 
ENDBRANCH  21  22
ENDBRANCH  19  21
ENDBRANCH  14  15
ENDBRANCH   1  14
TORSDOF 7
ENDMDL
MODEL 5
REMARK VINA RESULT:    -6.849      2.898      7.698
REMARK INTER + INTRA:         -10.731
REMARK INTER:                 -10.071
REMARK INTRA:                  -0.660
REMARK UNBOUND:                -1.079
REMARK  Name = 
REMARK  7 active torsions:
REMARK  status: ('A' for Active; 'I' for Inactive)
REMARK    1  A    between atoms: C_2  and  C_4
REMARK    2  A    between atoms: C_7  and  O_8
REMARK    3  A    between atoms: O_8  and  C_9
REMARK    4  A    between atoms: C_9  and  C_10
REMARK    5  A    between atoms: C_10  and  C_11
REMARK    6  A    between atoms: C_15  and  O_16
REMARK    7  A    between atoms: O_16  and  C_17
REMARK                            x       y       z     vdW  Elec       q    Type
REMARK                         _______ _______ _______ _____ _____    ______ ____
ROOT
ATOM      1  C   UNL     1      47.036   6.533  11.842  0.00  0.00    +0.000 C 
ENDROOT
BRANCH   1   2
ATOM      2  O   UNL     1      47.030   6.971  13.205  0.00  0.00    +0.000 OA
BRANCH   2   6
ATOM      3  C   UNL     1      47.873   3.934  15.846  0.00  0.00    +0.000 A 
ATOM      4  C   UNL     1      48.358   5.194  16.172  0.00  0.00    +0.000 A 
ATOM      5  C   UNL     1      48.101   6.253  15.303  0.00  0.00    +0.000 A 
ATOM      6  C   UNL     1      47.365   6.030  14.139  0.00  0.00    +0.000 A 
ATOM      7  C   UNL     1      46.927   4.728  13.900  0.00  0.00    +0.000 A 
ATOM      8  N   UNL     1      47.159   3.669  14.717  0.00  0.00    +0.000 NA
BRANCH   3  10
ATOM      9  N   UNL     1      47.355   2.745  17.894  0.00  0.00    +0.000 N 
ATOM     10  C   UNL     1      48.134   2.787  16.772  0.00  0.00    +0.000 C 
ATOM     11  O   UNL     1      48.985   1.936  16.545  0.00  0.00    +0.000 OA
ATOM     12  H   UNL     1      47.480   1.997  18.559  0.00  0.00    +0.000 HD
ATOM     13  H   UNL     1      46.655   3.464  18.047  0.00  0.00    +0.000 HD
ENDBRANCH   3  10
ENDBRANCH   2   6
ENDBRANCH   1   2
BRANCH   1  14
ATOM     14  C   UNL     1      45.618   6.608  11.274  0.00  0.00    +0.000 C 
BRANCH  14  15
ATOM     15  C   UNL     1      45.211   5.286  10.670  0.00  0.00    +0.000 A 
ATOM     16  C   UNL     1      44.505   4.342  11.425  0.00  0.00    +0.000 A 
ATOM     17  C   UNL     1      44.075   3.151  10.838  0.00  0.00    +0.000 A 
ATOM     18  C   UNL     1      44.344   2.887   9.493  0.00  0.00    +0.000 A 
ATOM     19  C   UNL     1      45.050   3.816   8.734  0.00  0.00    +0.000 A 
ATOM     20  C   UNL     1      45.476   5.013   9.320  0.00  0.00    +0.000 A 
BRANCH  19  21
ATOM     21  O   UNL     1      45.338   3.681   7.400  0.00  0.00    +0.000 OA
BRANCH  21  22
ATOM     22  C   UNL     1      46.706   3.446   6.996  0.00  0.00    +0.000 C 
ATOM     23  C   UNL     1      46.962   3.221   5.488  0.00  0.00    +0.000 C 
ATOM     24  C   UNL     1      47.796   1.980   5.833  0.00  0.00    +0.000 C 
ATOM     25  C   UNL     1      47.190   1.998   7.242  0.00  0.00    +0.000 C 
ENDBRANCH  21  22
ENDBRANCH  19  21
ENDBRANCH  14  15
ENDBRANCH   1  14
TORSDOF 7
ENDMDL
MODEL 6
REMARK VINA RESULT:    -6.564      3.360      7.442
REMARK INTER + INTRA:         -10.330
REMARK INTER:                  -9.698
REMARK INTRA:                  -0.632
REMARK UNBOUND:                -1.079
REMARK  Name = 
REMARK  7 active torsions:
REMARK  status: ('A' for Active; 'I' for Inactive)
REMARK    1  A    between atoms: C_2  and  C_4
REMARK    2  A    between atoms: C_7  and  O_8
REMARK    3  A    between atoms: O_8  and  C_9
REMARK    4  A    between atoms: C_9  and  C_10
REMARK    5  A    between atoms: C_10  and  C_11
REMARK    6  A    between atoms: C_15  and  O_16
REMARK    7  A    between atoms: O_16  and  C_17
REMARK                            x       y       z     vdW  Elec       q    Type
REMARK                         _______ _______ _______ _____ _____    ______ ____
ROOT
ATOM      1  C   UNL     1      47.395   6.889  11.902  0.00  0.00    +0.000 C 
ENDROOT
BRANCH   1   2
ATOM      2  O   UNL     1      47.870   7.197  13.217  0.00  0.00    +0.000 OA
BRANCH   2   6
ATOM      3  C   UNL     1      47.752   4.341  16.173  0.00  0.00    +0.000 A 
ATOM      4  C   UNL     1      46.978   4.101  15.045  0.00  0.00    +0.000 A 
ATOM      5  C   UNL     1      46.982   5.045  14.020  0.00  0.00    +0.000 A 
ATOM      6  C   UNL     1      47.760   6.196  14.143  0.00  0.00    +0.000 A 
ATOM      7  C   UNL     1      48.498   6.346  15.316  0.00  0.00    +0.000 A 
ATOM      8  N   UNL     1      48.518   5.454  16.339  0.00  0.00    +0.000 NA
BRANCH   3  10
ATOM      9  N   UNL     1      48.973   3.135  17.886  0.00  0.00    +0.000 N 
ATOM     10  C   UNL     1      47.764   3.333  17.280  0.00  0.00    +0.000 C 
ATOM     11  O   UNL     1      46.760   2.723  17.628  0.00  0.00    +0.000 OA
ATOM     12  H   UNL     1      49.048   2.471  18.641  0.00  0.00    +0.000 HD
ATOM     13  H   UNL     1      49.783   3.663  17.575  0.00  0.00    +0.000 HD
ENDBRANCH   3  10
ENDBRANCH   2   6
ENDBRANCH   1   2
BRANCH   1  14
ATOM     14  C   UNL     1      45.969   7.414  11.736  0.00  0.00    +0.000 C 
BRANCH  14  15
ATOM     15  C   UNL     1      44.994   6.276  11.561  0.00  0.00    +0.000 A 
ATOM     16  C   UNL     1      43.631   6.455  11.822  0.00  0.00    +0.000 A 
ATOM     17  C   UNL     1      42.728   5.415  11.593  0.00  0.00    +0.000 A 
ATOM     18  C   UNL     1      43.173   4.185  11.103  0.00  0.00    +0.000 A 
ATOM     19  C   UNL     1      44.528   3.994  10.845  0.00  0.00    +0.000 A 
ATOM     20  C   UNL     1      45.433   5.038  11.068  0.00  0.00    +0.000 A 
BRANCH  19  21
ATOM     21  O   UNL     1      45.072   2.846  10.328  0.00  0.00    +0.000 OA
BRANCH  21  22
ATOM     22  C   UNL     1      44.967   2.596   8.908  0.00  0.00    +0.000 C 
ATOM     23  C   UNL     1      46.147   1.856   8.239  0.00  0.00    +0.000 C 
ATOM     24  C   UNL     1      46.172   2.925   7.139  0.00  0.00    +0.000 C 
ATOM     25  C   UNL     1      45.308   3.824   8.031  0.00  0.00    +0.000 C 
ENDBRANCH  21  22
ENDBRANCH  19  21
ENDBRANCH  14  15
ENDBRANCH   1  14
TORSDOF 7
ENDMDL
MODEL 7
REMARK VINA RESULT:    -6.401      3.754      8.448
REMARK INTER + INTRA:         -10.099
REMARK INTER:                  -9.436
REMARK INTRA:                  -0.663
REMARK UNBOUND:                -1.079
REMARK  Name = 
REMARK  7 active torsions:
REMARK  status: ('A' for Active; 'I' for Inactive)
REMARK    1  A    between atoms: C_2  and  C_4
REMARK    2  A    between atoms: C_7  and  O_8
REMARK    3  A    between atoms: O_8  and  C_9
REMARK    4  A    between atoms: C_9  and  C_10
REMARK    5  A    between atoms: C_10  and  C_11
REMARK    6  A    between atoms: C_15  and  O_16
REMARK    7  A    between atoms: O_16  and  C_17
REMARK                            x       y       z     vdW  Elec       q    Type
REMARK                         _______ _______ _______ _____ _____    ______ ____
ROOT
ATOM      1  C   UNL     1      47.442   5.500  13.380  0.00  0.00    +0.000 C 
ENDROOT
BRANCH   1   2
ATOM      2  O   UNL     1      46.981   4.581  14.376  0.00  0.00    +0.000 OA
BRANCH   2   6
ATOM      3  C   UNL     1      48.342   4.858  18.246  0.00  0.00    +0.000 A 
ATOM      4  C   UNL     1      48.770   5.842  17.365  0.00  0.00    +0.000 A 
ATOM      5  C   UNL     1      48.338   5.785  16.041  0.00  0.00    +0.000 A 
ATOM      6  C   UNL     1      47.490   4.756  15.633  0.00  0.00    +0.000 A 
ATOM      7  C   UNL     1      47.122   3.814  16.593  0.00  0.00    +0.000 A 
ATOM      8  N   UNL     1      47.523   3.831  17.890  0.00  0.00    +0.000 NA
BRANCH   3  10
ATOM      9  N   UNL     1      48.623   3.755  20.387  0.00  0.00    +0.000 N 
ATOM     10  C   UNL     1      48.791   4.908  19.673  0.00  0.00    +0.000 C 
ATOM     11  O   UNL     1      49.281   5.913  20.176  0.00  0.00    +0.000 OA
ATOM     12  H   UNL     1      48.908   3.723  21.354  0.00  0.00    +0.000 HD
ATOM     13  H   UNL     1      48.220   2.940  19.936  0.00  0.00    +0.000 HD
ENDBRANCH   3  10
ENDBRANCH   2   6
ENDBRANCH   1   2
BRANCH   1  14
ATOM     14  C   UNL     1      46.287   6.399  12.938  0.00  0.00    +0.000 C 
BRANCH  14  15
ATOM     15  C   UNL     1      45.393   5.681  11.957  0.00  0.00    +0.000 A 
ATOM     16  C   UNL     1      44.115   5.253  12.335  0.00  0.00    +0.000 A 
ATOM     17  C   UNL     1      43.270   4.649  11.401  0.00  0.00    +0.000 A 
ATOM     18  C   UNL     1      43.689   4.465  10.081  0.00  0.00    +0.000 A 
ATOM     19  C   UNL     1      44.961   4.882   9.697  0.00  0.00    +0.000 A 
ATOM     20  C   UNL     1      45.805   5.493  10.629  0.00  0.00    +0.000 A 
BRANCH  19  21
ATOM     21  O   UNL     1      45.463   4.787   8.423  0.00  0.00    +0.000 OA
BRANCH  21  22
ATOM     22  C   UNL     1      45.432   3.509   7.749  0.00  0.00    +0.000 C 
ATOM     23  C   UNL     1      45.719   2.257   8.608  0.00  0.00    +0.000 C 
ATOM     24  C   UNL     1      46.721   1.780   7.548  0.00  0.00    +0.000 C 
ATOM     25  C   UNL     1      46.718   3.192   6.951  0.00  0.00    +0.000 C 
ENDBRANCH  21  22
ENDBRANCH  19  21
ENDBRANCH  14  15
ENDBRANCH   1  14
TORSDOF 7
ENDMDL
MODEL 8
REMARK VINA RESULT:    -6.049      3.550      8.251
REMARK INTER + INTRA:          -9.604
REMARK INTER:                  -8.951
REMARK INTRA:                  -0.653
REMARK UNBOUND:                -1.079
REMARK  Name = 
REMARK  7 active torsions:
REMARK  status: ('A' for Active; 'I' for Inactive)
REMARK    1  A    between atoms: C_2  and  C_4
REMARK    2  A    between atoms: C_7  and  O_8
REMARK    3  A    between atoms: O_8  and  C_9
REMARK    4  A    between atoms: C_9  and  C_10
REMARK    5  A    between atoms: C_10  and  C_11
REMARK    6  A    between atoms: C_15  and  O_16
REMARK    7  A    between atoms: O_16  and  C_17
REMARK                            x       y       z     vdW  Elec       q    Type
REMARK                         _______ _______ _______ _____ _____    ______ ____
ROOT
ATOM      1  C   UNL     1      46.873   6.554  11.829  0.00  0.00    +0.000 C 
ENDROOT
BRANCH   1   2
ATOM      2  O   UNL     1      46.953   7.641  12.758  0.00  0.00    +0.000 OA
BRANCH   2   6
ATOM      3  C   UNL     1      49.242   6.716  16.046  0.00  0.00    +0.000 A 
ATOM      4  C   UNL     1      49.183   8.057  15.687  0.00  0.00    +0.000 A 
ATOM      5  C   UNL     1      48.423   8.416  14.575  0.00  0.00    +0.000 A 
ATOM      6  C   UNL     1      47.741   7.434  13.857  0.00  0.00    +0.000 A 
ATOM      7  C   UNL     1      47.868   6.117  14.296  0.00  0.00    +0.000 A 
ATOM      8  N   UNL     1      48.600   5.725  15.369  0.00  0.00    +0.000 NA
BRANCH   3  10
ATOM      9  N   UNL     1      51.100   5.479  16.993  0.00  0.00    +0.000 N 
ATOM     10  C   UNL     1      50.048   6.315  17.242  0.00  0.00    +0.000 C 
ATOM     11  O   UNL     1      49.789   6.707  18.374  0.00  0.00    +0.000 OA
ATOM     12  H   UNL     1      51.684   5.172  17.756  0.00  0.00    +0.000 HD
ATOM     13  H   UNL     1      51.288   5.179  16.041  0.00  0.00    +0.000 HD
ENDBRANCH   3  10
ENDBRANCH   2   6
ENDBRANCH   1   2
BRANCH   1  14
ATOM     14  C   UNL     1      45.517   6.581  11.125  0.00  0.00    +0.000 C 
BRANCH  14  15
ATOM     15  C   UNL     1      45.152   5.211  10.609  0.00  0.00    +0.000 A 
ATOM     16  C   UNL     1      44.518   4.279  11.439  0.00  0.00    +0.000 A 
ATOM     17  C   UNL     1      44.125   3.038  10.932  0.00  0.00    +0.000 A 
ATOM     18  C   UNL     1      44.359   2.713   9.594  0.00  0.00    +0.000 A 
ATOM     19  C   UNL     1      44.994   3.630   8.762  0.00  0.00    +0.000 A 
ATOM     20  C   UNL     1      45.383   4.875   9.266  0.00  0.00    +0.000 A 
BRANCH  19  21
ATOM     21  O   UNL     1      45.242   3.434   7.426  0.00  0.00    +0.000 OA
BRANCH  21  22
ATOM     22  C   UNL     1      46.611   3.338   6.972  0.00  0.00    +0.000 C 
ATOM     23  C   UNL     1      46.832   3.052   5.469  0.00  0.00    +0.000 C 
ATOM     24  C   UNL     1      47.823   1.942   5.844  0.00  0.00    +0.000 C 
ATOM     25  C   UNL     1      47.276   1.976   7.276  0.00  0.00    +0.000 C 
ENDBRANCH  21  22
ENDBRANCH  19  21
ENDBRANCH  14  15
ENDBRANCH   1  14
TORSDOF 7
ENDMDL
MODEL 9
REMARK VINA RESULT:    -5.922      3.165      4.877
REMARK INTER + INTRA:          -9.424
REMARK INTER:                  -8.094
REMARK INTRA:                  -1.331
REMARK UNBOUND:                -1.079
REMARK  Name = 
REMARK  7 active torsions:
REMARK  status: ('A' for Active; 'I' for Inactive)
REMARK    1  A    between atoms: C_2  and  C_4
REMARK    2  A    between atoms: C_7  and  O_8
REMARK    3  A    between atoms: O_8  and  C_9
REMARK    4  A    between atoms: C_9  and  C_10
REMARK    5  A    between atoms: C_10  and  C_11
REMARK    6  A    between atoms: C_15  and  O_16
REMARK    7  A    between atoms: O_16  and  C_17
REMARK                            x       y       z     vdW  Elec       q    Type
REMARK                         _______ _______ _______ _____ _____    ______ ____
ROOT
ATOM      1  C   UNL     1      48.628   7.699  11.862  0.00  0.00    +0.000 C 
ENDROOT
BRANCH   1   2
ATOM      2  O   UNL     1      47.204   7.816  11.962  0.00  0.00    +0.000 OA
BRANCH   2   6
ATOM      3  C   UNL     1      45.026   4.328  11.967  0.00  0.00    +0.000 A 
ATOM      4  C   UNL     1      45.664   4.665  13.154  0.00  0.00    +0.000 A 
ATOM      5  C   UNL     1      46.418   5.836  13.197  0.00  0.00    +0.000 A 
ATOM      6  C   UNL     1      46.512   6.640  12.061  0.00  0.00    +0.000 A 
ATOM      7  C   UNL     1      45.838   6.213  10.918  0.00  0.00    +0.000 A 
ATOM      8  N   UNL     1      45.098   5.079  10.833  0.00  0.00    +0.000 NA
BRANCH   3  10
ATOM      9  N   UNL     1      44.181   2.445  10.696  0.00  0.00    +0.000 N 
ATOM     10  C   UNL     1      44.206   3.078  11.906  0.00  0.00    +0.000 C 
ATOM     11  O   UNL     1      43.594   2.641  12.875  0.00  0.00    +0.000 OA
ATOM     12  H   UNL     1      43.649   1.595  10.588  0.00  0.00    +0.000 HD
ATOM     13  H   UNL     1      44.705   2.832   9.916  0.00  0.00    +0.000 HD
ENDBRANCH   3  10
ENDBRANCH   2   6
ENDBRANCH   1   2
BRANCH   1  14
ATOM     14  C   UNL     1      49.292   8.747  12.755  0.00  0.00    +0.000 C 
BRANCH  14  15
ATOM     15  C   UNL     1      49.127   8.393  14.212  0.00  0.00    +0.000 A 
ATOM     16  C   UNL     1      48.612   9.326  15.121  0.00  0.00    +0.000 A 
ATOM     17  C   UNL     1      48.402   8.966  16.454  0.00  0.00    +0.000 A 
ATOM     18  C   UNL     1      48.701   7.676  16.896  0.00  0.00    +0.000 A 
ATOM     19  C   UNL     1      49.219   6.743  16.002  0.00  0.00    +0.000 A 
ATOM     20  C   UNL     1      49.425   7.099  14.665  0.00  0.00    +0.000 A 
BRANCH  19  21
ATOM     21  O   UNL     1      49.514   5.440  16.314  0.00  0.00    +0.000 OA
BRANCH  21  22
ATOM     22  C   UNL     1      48.699   4.749  17.288  0.00  0.00    +0.000 C 
ATOM     23  C   UNL     1      49.034   3.264  17.554  0.00  0.00    +0.000 C 
ATOM     24  C   UNL     1      47.548   2.918  17.392  0.00  0.00    +0.000 C 
ATOM     25  C   UNL     1      47.328   4.288  16.742  0.00  0.00    +0.000 C 
ENDBRANCH  21  22
ENDBRANCH  19  21
ENDBRANCH  14  15
ENDBRANCH   1  14
TORSDOF 7
ENDMDL
