MODEL 1
REMARK VINA RESULT:    -7.829      0.000      0.000
REMARK INTER + INTRA:          -9.908
REMARK INTER:                  -9.202
REMARK INTRA:                  -0.705
REMARK UNBOUND:                -0.705
REMARK  Name = 
REMARK  3 active torsions:
REMARK  status: ('A' for Active; 'I' for Inactive)
REMARK    1  A    between atoms: N_5  and  C_6
REMARK    2  A    between atoms: C_6  and  C_7
REMARK    3  A    between atoms: C_11  and  N_12
REMARK                            x       y       z     vdW  Elec       q    Type
REMARK                         _______ _______ _______ _____ _____    ______ ____
ROOT
ATOM      1  C   UNL     1      45.474   4.225  11.949  0.00  0.00    +0.000 A 
ATOM      2  C   UNL     1      45.969   3.334  12.897  0.00  0.00    +0.000 A 
ATOM      3  N   UNL     1      46.831   3.661  13.885  0.00  0.00    +0.000 NA
ATOM      4  C   UNL     1      47.206   4.964  13.940  0.00  0.00    +0.000 A 
ATOM      5  C   UNL     1      46.816   5.963  13.046  0.00  0.00    +0.000 A 
ATOM      6  C   UNL     1      45.978   5.533  12.016  0.00  0.00    +0.000 A 
ENDROOT
BRANCH   5   7
ATOM      7  N   UNL     1      47.175   7.284  13.194  0.00  0.00    +0.000 N 
ATOM      8  C   UNL     1      46.198   8.381  13.283  0.00  0.00    +0.000 C 
ATOM      9  C   UNL     1      46.399   9.371  12.128  0.00  0.00    +0.000 C 
ATOM     10  O   UNL     1      47.760   9.830  12.053  0.00  0.00    +0.000 OA
ATOM     11  C   UNL     1      48.653   8.717  11.866  0.00  0.00    +0.000 C 
ATOM     12  C   UNL     1      48.568   7.722  13.035  0.00  0.00    +0.000 C 
ENDBRANCH   5   7
BRANCH   1  13
ATOM     13  C   UNL     1      44.383   3.858  10.955  0.00  0.00    +0.000 C 
ATOM     14  C   UNL     1      42.941   3.805  11.462  0.00  0.00    +0.000 C 
ATOM     15  C   UNL     1      43.390   4.972  10.655  0.00  0.00    +0.000 C 
BRANCH  13  20
ATOM     16  C   UNL     1      46.934   2.299   6.618  0.00  0.00    +0.000 A 
ATOM     17  C   UNL     1      46.452   3.570   6.912  0.00  0.00    +0.000 A 
ATOM     18  C   UNL     1      45.739   3.780   8.099  0.00  0.00    +0.000 A 
ATOM     19  C   UNL     1      45.513   2.706   8.946  0.00  0.00    +0.000 A 
ATOM     20  N   UNL     1      44.709   2.737  10.079  0.00  0.00    +0.000 N 
ATOM     21  N   UNL     1      45.992   1.473   8.670  0.00  0.00    +0.000 NA
ATOM     22  C   UNL     1      46.689   1.288   7.533  0.00  0.00    +0.000 A 
ATOM     23  H   UNL     1      44.793   1.816  10.501  0.00  0.00    +0.000 HD
ENDBRANCH  13  20
ENDBRANCH   1  13
TORSDOF 3
ENDMDL
MODEL 2
REMARK VINA RESULT:    -6.616      2.348      3.400
REMARK INTER + INTRA:          -8.481
REMARK INTER:                  -8.033
REMARK INTRA:                  -0.449
REMARK UNBOUND:                -0.705
REMARK  Name = 
REMARK  3 active torsions:
REMARK  status: ('A' for Active; 'I' for Inactive)
REMARK    1  A    between atoms: N_5  and  C_6
REMARK    2  A    between atoms: C_6  and  C_7
REMARK    3  A    between atoms: C_11  and  N_12
REMARK                            x       y       z     vdW  Elec       q    Type
REMARK                         _______ _______ _______ _____ _____    ______ ____
ROOT
ATOM      1  C   UNL     1      45.369   5.484  12.283  0.00  0.00    +0.000 A 
ATOM      2  C   UNL     1      46.100   6.408  11.540  0.00  0.00    +0.000 A 
ATOM      3  N   UNL     1      47.309   6.896  11.894  0.00  0.00    +0.000 NA
ATOM      4  C   UNL     1      47.828   6.416  13.052  0.00  0.00    +0.000 A 
ATOM      5  C   UNL     1      47.204   5.511  13.913  0.00  0.00    +0.000 A 
ATOM      6  C   UNL     1      45.930   5.104  13.512  0.00  0.00    +0.000 A 
ENDROOT
BRANCH   5   7
ATOM      7  N   UNL     1      47.811   5.007  15.041  0.00  0.00    +0.000 N 
ATOM      8  C   UNL     1      47.473   3.699  15.623  0.00  0.00    +0.000 C 
ATOM      9  C   UNL     1      46.948   3.870  17.055  0.00  0.00    +0.000 C 
ATOM     10  O   UNL     1      47.857   4.633  17.867  0.00  0.00    +0.000 OA
ATOM     11  C   UNL     1      48.065   5.936  17.293  0.00  0.00    +0.000 C 
ATOM     12  C   UNL     1      48.675   5.844  15.884  0.00  0.00    +0.000 C 
ENDBRANCH   5   7
BRANCH   1  13
ATOM     13  C   UNL     1      44.090   4.837  11.776  0.00  0.00    +0.000 C 
ATOM     14  C   UNL     1      42.896   4.768  12.729  0.00  0.00    +0.000 C 
ATOM     15  C   UNL     1      42.904   5.781  11.638  0.00  0.00    +0.000 C 
BRANCH  13  20
ATOM     16  C   UNL     1      46.094   2.592   7.452  0.00  0.00    +0.000 A 
ATOM     17  C   UNL     1      45.677   3.910   7.613  0.00  0.00    +0.000 A 
ATOM     18  C   UNL     1      45.109   4.310   8.829  0.00  0.00    +0.000 A 
ATOM     19  C   UNL     1      44.958   3.373   9.840  0.00  0.00    +0.000 A 
ATOM     20  N   UNL     1      44.289   3.592  11.037  0.00  0.00    +0.000 N 
ATOM     21  N   UNL     1      45.374   2.097   9.691  0.00  0.00    +0.000 NA
ATOM     22  C   UNL     1      45.932   1.728   8.523  0.00  0.00    +0.000 A 
ATOM     23  H   UNL     1      44.400   2.736  11.575  0.00  0.00    +0.000 HD
ENDBRANCH  13  20
ENDBRANCH   1  13
TORSDOF 3
ENDMDL
MODEL 3
REMARK VINA RESULT:    -6.450      1.456      1.808
REMARK INTER + INTRA:          -8.287
REMARK INTER:                  -7.587
REMARK INTRA:                  -0.700
REMARK UNBOUND:                -0.705
REMARK  Name = 
REMARK  3 active torsions:
REMARK  status: ('A' for Active; 'I' for Inactive)
REMARK    1  A    between atoms: N_5  and  C_6
REMARK    2  A    between atoms: C_6  and  C_7
REMARK    3  A    between atoms: C_11  and  N_12
REMARK                            x       y       z     vdW  Elec       q    Type
REMARK                         _______ _______ _______ _____ _____    ______ ____
ROOT
ATOM      1  C   UNL     1      45.610   5.112  12.631  0.00  0.00    +0.000 A 
ATOM      2  C   UNL     1      45.856   4.060  13.509  0.00  0.00    +0.000 A 
ATOM      3  N   UNL     1      46.821   4.056  14.455  0.00  0.00    +0.000 NA
ATOM      4  C   UNL     1      47.573   5.182  14.542  0.00  0.00    +0.000 A 
ATOM      5  C   UNL     1      47.462   6.303  13.716  0.00  0.00    +0.000 A 
ATOM      6  C   UNL     1      46.487   6.204  12.722  0.00  0.00    +0.000 A 
ENDROOT
BRANCH   5   7
ATOM      7  N   UNL     1      48.209   7.445  13.897  0.00  0.00    +0.000 N 
ATOM      8  C   UNL     1      48.323   8.504  12.882  0.00  0.00    +0.000 C 
ATOM      9  C   UNL     1      49.786   8.674  12.450  0.00  0.00    +0.000 C 
ATOM     10  O   UNL     1      50.653   8.877  13.579  0.00  0.00    +0.000 OA
ATOM     11  C   UNL     1      50.567   7.760  14.481  0.00  0.00    +0.000 C 
ATOM     12  C   UNL     1      49.139   7.581  15.026  0.00  0.00    +0.000 C 
ENDBRANCH   5   7
BRANCH   1  13
ATOM     13  C   UNL     1      44.415   5.147  11.691  0.00  0.00    +0.000 C 
ATOM     14  C   UNL     1      43.068   5.592  12.262  0.00  0.00    +0.000 C 
ATOM     15  C   UNL     1      43.853   6.535  11.421  0.00  0.00    +0.000 C 
BRANCH  13  20
ATOM     16  C   UNL     1      46.241   2.703   7.397  0.00  0.00    +0.000 A 
ATOM     17  C   UNL     1      46.288   4.062   7.688  0.00  0.00    +0.000 A 
ATOM     18  C   UNL     1      45.690   4.537   8.862  0.00  0.00    +0.000 A 
ATOM     19  C   UNL     1      45.046   3.639   9.699  0.00  0.00    +0.000 A 
ATOM     20  N   UNL     1      44.295   3.985  10.815  0.00  0.00    +0.000 N 
ATOM     21  N   UNL     1      45.010   2.317   9.425  0.00  0.00    +0.000 NA
ATOM     22  C   UNL     1      45.602   1.871   8.301  0.00  0.00    +0.000 A 
ATOM     23  H   UNL     1      44.003   3.105  11.234  0.00  0.00    +0.000 HD
ENDBRANCH  13  20
ENDBRANCH   1  13
TORSDOF 3
ENDMDL
MODEL 4
REMARK VINA RESULT:    -6.424      2.627      6.853
REMARK INTER + INTRA:          -8.256
REMARK INTER:                  -8.242
REMARK INTRA:                  -0.014
REMARK UNBOUND:                -0.705
REMARK  Name = 
REMARK  3 active torsions:
REMARK  status: ('A' for Active; 'I' for Inactive)
REMARK    1  A    between atoms: N_5  and  C_6
REMARK    2  A    between atoms: C_6  and  C_7
REMARK    3  A    between atoms: C_11  and  N_12
REMARK                            x       y       z     vdW  Elec       q    Type
REMARK                         _______ _______ _______ _____ _____    ______ ____
ROOT
ATOM      1  C   UNL     1      45.255   5.719  12.242  0.00  0.00    +0.000 A 
ATOM      2  C   UNL     1      44.613   4.968  13.223  0.00  0.00    +0.000 A 
ATOM      3  N   UNL     1      43.993   3.788  13.005  0.00  0.00    +0.000 NA
ATOM      4  C   UNL     1      44.033   3.320  11.733  0.00  0.00    +0.000 A 
ATOM      5  C   UNL     1      44.614   3.971  10.642  0.00  0.00    +0.000 A 
ATOM      6  C   UNL     1      45.177   5.214  10.934  0.00  0.00    +0.000 A 
ENDROOT
BRANCH   5   7
ATOM      7  N   UNL     1      44.684   3.413   9.385  0.00  0.00    +0.000 N 
ATOM      8  C   UNL     1      44.693   1.961   9.147  0.00  0.00    +0.000 C 
ATOM      9  C   UNL     1      45.991   1.542   8.443  0.00  0.00    +0.000 C 
ATOM     10  O   UNL     1      46.221   2.313   7.251  0.00  0.00    +0.000 OA
ATOM     11  C   UNL     1      46.301   3.714   7.570  0.00  0.00    +0.000 C 
ATOM     12  C   UNL     1      44.995   4.226   8.202  0.00  0.00    +0.000 C 
ENDBRANCH   5   7
BRANCH   1  13
ATOM     13  C   UNL     1      46.081   6.958  12.552  0.00  0.00    +0.000 C 
ATOM     14  C   UNL     1      47.207   6.829  13.579  0.00  0.00    +0.000 C 
ATOM     15  C   UNL     1      47.540   6.877  12.129  0.00  0.00    +0.000 C 
BRANCH  13  20
ATOM     16  C   UNL     1      45.659  12.076  11.380  0.00  0.00    +0.000 A 
ATOM     17  C   UNL     1      46.814  11.302  11.413  0.00  0.00    +0.000 A 
ATOM     18  C   UNL     1      46.735   9.962  11.810  0.00  0.00    +0.000 A 
ATOM     19  C   UNL     1      45.505   9.443  12.182  0.00  0.00    +0.000 A 
ATOM     20  N   UNL     1      45.302   8.181  12.726  0.00  0.00    +0.000 N 
ATOM     21  N   UNL     1      44.379  10.188  12.138  0.00  0.00    +0.000 NA
ATOM     22  C   UNL     1      44.466  11.471  11.740  0.00  0.00    +0.000 A 
ATOM     23  H   UNL     1      44.295   8.088  12.839  0.00  0.00    +0.000 HD
ENDBRANCH  13  20
ENDBRANCH   1  13
TORSDOF 3
ENDMDL
MODEL 5
REMARK VINA RESULT:    -6.093      3.239      7.196
REMARK INTER + INTRA:          -7.867
REMARK INTER:                  -7.026
REMARK INTRA:                  -0.842
REMARK UNBOUND:                -0.705
REMARK  Name = 
REMARK  3 active torsions:
REMARK  status: ('A' for Active; 'I' for Inactive)
REMARK    1  A    between atoms: N_5  and  C_6
REMARK    2  A    between atoms: C_6  and  C_7
REMARK    3  A    between atoms: C_11  and  N_12
REMARK                            x       y       z     vdW  Elec       q    Type
REMARK                         _______ _______ _______ _____ _____    ______ ____
ROOT
ATOM      1  C   UNL     1      47.477   7.907  12.133  0.00  0.00    +0.000 A 
ATOM      2  C   UNL     1      46.774   9.109  12.104  0.00  0.00    +0.000 A 
ATOM      3  N   UNL     1      45.442   9.217  11.906  0.00  0.00    +0.000 NA
ATOM      4  C   UNL     1      44.767   8.051  11.747  0.00  0.00    +0.000 A 
ATOM      5  C   UNL     1      45.337   6.775  11.725  0.00  0.00    +0.000 A 
ATOM      6  C   UNL     1      46.725   6.751  11.870  0.00  0.00    +0.000 A 
ENDROOT
BRANCH   5   7
ATOM      7  N   UNL     1      44.591   5.622  11.628  0.00  0.00    +0.000 N 
ATOM      8  C   UNL     1      43.262   5.467  12.241  0.00  0.00    +0.000 C 
ATOM      9  C   UNL     1      43.276   4.324  13.265  0.00  0.00    +0.000 C 
ATOM     10  O   UNL     1      43.781   3.105  12.693  0.00  0.00    +0.000 OA
ATOM     11  C   UNL     1      45.120   3.301  12.203  0.00  0.00    +0.000 C 
ATOM     12  C   UNL     1      45.169   4.378  11.105  0.00  0.00    +0.000 C 
ENDBRANCH   5   7
BRANCH   1  13
ATOM     13  C   UNL     1      48.944   7.813  12.519  0.00  0.00    +0.000 C 
ATOM     14  C   UNL     1      49.978   7.745  11.393  0.00  0.00    +0.000 C 
ATOM     15  C   UNL     1      49.787   9.021  12.136  0.00  0.00    +0.000 C 
BRANCH  13  20
ATOM     16  C   UNL     1      48.651   6.874  17.694  0.00  0.00    +0.000 A 
ATOM     17  C   UNL     1      48.694   8.108  17.053  0.00  0.00    +0.000 A 
ATOM     18  C   UNL     1      48.835   8.157  15.660  0.00  0.00    +0.000 A 
ATOM     19  C   UNL     1      48.948   6.970  14.954  0.00  0.00    +0.000 A 
ATOM     20  N   UNL     1      49.231   6.871  13.598  0.00  0.00    +0.000 N 
ATOM     21  N   UNL     1      48.893   5.770  15.572  0.00  0.00    +0.000 NA
ATOM     22  C   UNL     1      48.742   5.736  16.909  0.00  0.00    +0.000 A 
ATOM     23  H   UNL     1      49.195   5.878  13.380  0.00  0.00    +0.000 HD
ENDBRANCH  13  20
ENDBRANCH   1  13
TORSDOF 3
ENDMDL
MODEL 6
REMARK VINA RESULT:    -5.857      4.208      7.590
REMARK INTER + INTRA:          -7.589
REMARK INTER:                  -6.995
REMARK INTRA:                  -0.594
REMARK UNBOUND:                -0.705
REMARK  Name = 
REMARK  3 active torsions:
REMARK  status: ('A' for Active; 'I' for Inactive)
REMARK    1  A    between atoms: N_5  and  C_6
REMARK    2  A    between atoms: C_6  and  C_7
REMARK    3  A    between atoms: C_11  and  N_12
REMARK                            x       y       z     vdW  Elec       q    Type
REMARK                         _______ _______ _______ _____ _____    ______ ____
ROOT
ATOM      1  C   UNL     1      48.431   5.557  15.994  0.00  0.00    +0.000 A 
ATOM      2  C   UNL     1      49.222   6.683  15.778  0.00  0.00    +0.000 A 
ATOM      3  N   UNL     1      49.179   7.451  14.667  0.00  0.00    +0.000 NA
ATOM      4  C   UNL     1      48.278   7.083  13.723  0.00  0.00    +0.000 A 
ATOM      5  C   UNL     1      47.439   5.967  13.786  0.00  0.00    +0.000 A 
ATOM      6  C   UNL     1      47.588   5.188  14.934  0.00  0.00    +0.000 A 
ENDROOT
BRANCH   5   7
ATOM      7  N   UNL     1      46.494   5.683  12.826  0.00  0.00    +0.000 N 
ATOM      8  C   UNL     1      46.333   6.473  11.595  0.00  0.00    +0.000 C 
ATOM      9  C   UNL     1      44.929   7.089  11.535  0.00  0.00    +0.000 C 
ATOM     10  O   UNL     1      43.904   6.095  11.708  0.00  0.00    +0.000 OA
ATOM     11  C   UNL     1      44.062   5.432  12.975  0.00  0.00    +0.000 C 
ATOM     12  C   UNL     1      45.419   4.714  13.073  0.00  0.00    +0.000 C 
ENDBRANCH   5   7
BRANCH   1  13
ATOM     13  C   UNL     1      48.390   4.814  17.320  0.00  0.00    +0.000 C 
ATOM     14  C   UNL     1      47.292   5.188  18.316  0.00  0.00    +0.000 C 
ATOM     15  C   UNL     1      47.164   3.935  17.524  0.00  0.00    +0.000 C 
BRANCH  13  20
ATOM     16  C   UNL     1      52.671   1.777  17.762  0.00  0.00    +0.000 A 
ATOM     17  C   UNL     1      51.388   1.391  17.388  0.00  0.00    +0.000 A 
ATOM     18  C   UNL     1      50.356   2.338  17.387  0.00  0.00    +0.000 A 
ATOM     19  C   UNL     1      50.636   3.637  17.780  0.00  0.00    +0.000 A 
ATOM     20  N   UNL     1      49.690   4.639  17.961  0.00  0.00    +0.000 N 
ATOM     21  N   UNL     1      51.884   4.018  18.131  0.00  0.00    +0.000 NA
ATOM     22  C   UNL     1      52.871   3.102  18.113  0.00  0.00    +0.000 A 
ATOM     23  H   UNL     1      50.217   5.476  18.197  0.00  0.00    +0.000 HD
ENDBRANCH  13  20
ENDBRANCH   1  13
TORSDOF 3
ENDMDL
MODEL 7
REMARK VINA RESULT:    -5.794      3.095      6.866
REMARK INTER + INTRA:          -7.515
REMARK INTER:                  -7.553
REMARK INTRA:                   0.038
REMARK UNBOUND:                -0.705
REMARK  Name = 
REMARK  3 active torsions:
REMARK  status: ('A' for Active; 'I' for Inactive)
REMARK    1  A    between atoms: N_5  and  C_6
REMARK    2  A    between atoms: C_6  and  C_7
REMARK    3  A    between atoms: C_11  and  N_12
REMARK                            x       y       z     vdW  Elec       q    Type
REMARK                         _______ _______ _______ _____ _____    ______ ____
ROOT
ATOM      1  C   UNL     1      46.975   7.691  13.208  0.00  0.00    +0.000 A 
ATOM      2  C   UNL     1      48.064   7.068  13.812  0.00  0.00    +0.000 A 
ATOM      3  N   UNL     1      48.114   5.761  14.148  0.00  0.00    +0.000 NA
ATOM      4  C   UNL     1      47.015   5.026  13.844  0.00  0.00    +0.000 A 
ATOM      5  C   UNL     1      45.841   5.514  13.266  0.00  0.00    +0.000 A 
ATOM      6  C   UNL     1      45.842   6.886  13.009  0.00  0.00    +0.000 A 
ENDROOT
BRANCH   5   7
ATOM      7  N   UNL     1      44.783   4.705  12.918  0.00  0.00    +0.000 N 
ATOM      8  C   UNL     1      44.947   3.407  12.245  0.00  0.00    +0.000 C 
ATOM      9  C   UNL     1      44.243   3.420  10.881  0.00  0.00    +0.000 C 
ATOM     10  O   UNL     1      42.869   3.828  10.997  0.00  0.00    +0.000 OA
ATOM     11  C   UNL     1      42.785   5.145  11.570  0.00  0.00    +0.000 C 
ATOM     12  C   UNL     1      43.397   5.187  12.981  0.00  0.00    +0.000 C 
ENDBRANCH   5   7
BRANCH   1  13
ATOM     13  C   UNL     1      47.015   9.122  12.697  0.00  0.00    +0.000 C 
ATOM     14  C   UNL     1      48.190  10.003  13.125  0.00  0.00    +0.000 C 
ATOM     15  C   UNL     1      48.164   9.433  11.750  0.00  0.00    +0.000 C 
BRANCH  13  20
ATOM     16  C   UNL     1      43.520  12.076  10.087  0.00  0.00    +0.000 A 
ATOM     17  C   UNL     1      44.886  11.960   9.847  0.00  0.00    +0.000 A 
ATOM     18  C   UNL     1      45.669  11.166  10.694  0.00  0.00    +0.000 A 
ATOM     19  C   UNL     1      45.065  10.528  11.766  0.00  0.00    +0.000 A 
ATOM     20  N   UNL     1      45.737   9.827  12.760  0.00  0.00    +0.000 N 
ATOM     21  N   UNL     1      43.738  10.627  11.993  0.00  0.00    +0.000 NA
ATOM     22  C   UNL     1      42.992  11.381  11.163  0.00  0.00    +0.000 A 
ATOM     23  H   UNL     1      45.014   9.442  13.362  0.00  0.00    +0.000 HD
ENDBRANCH  13  20
ENDBRANCH   1  13
TORSDOF 3
ENDMDL
MODEL 8
REMARK VINA RESULT:    -5.572      2.828      3.789
REMARK INTER + INTRA:          -7.254
REMARK INTER:                  -7.061
REMARK INTRA:                  -0.193
REMARK UNBOUND:                -0.705
REMARK  Name = 
REMARK  3 active torsions:
REMARK  status: ('A' for Active; 'I' for Inactive)
REMARK    1  A    between atoms: N_5  and  C_6
REMARK    2  A    between atoms: C_6  and  C_7
REMARK    3  A    between atoms: C_11  and  N_12
REMARK                            x       y       z     vdW  Elec       q    Type
REMARK                         _______ _______ _______ _____ _____    ______ ____
ROOT
ATOM      1  C   UNL     1      46.749   5.503  13.587  0.00  0.00    +0.000 A 
ATOM      2  C   UNL     1      46.471   4.254  14.138  0.00  0.00    +0.000 A 
ATOM      3  N   UNL     1      47.020   3.776  15.275  0.00  0.00    +0.000 NA
ATOM      4  C   UNL     1      47.885   4.603  15.913  0.00  0.00    +0.000 A 
ATOM      5  C   UNL     1      48.281   5.867  15.471  0.00  0.00    +0.000 A 
ATOM      6  C   UNL     1      47.721   6.264  14.255  0.00  0.00    +0.000 A 
ENDROOT
BRANCH   5   7
ATOM      7  N   UNL     1      49.111   6.691  16.197  0.00  0.00    +0.000 N 
ATOM      8  C   UNL     1      49.873   6.235  17.371  0.00  0.00    +0.000 C 
ATOM      9  C   UNL     1      49.454   7.025  18.619  0.00  0.00    +0.000 C 
ATOM     10  O   UNL     1      49.541   8.444  18.404  0.00  0.00    +0.000 OA
ATOM     11  C   UNL     1      48.696   8.835  17.307  0.00  0.00    +0.000 C 
ATOM     12  C   UNL     1      49.115   8.145  15.997  0.00  0.00    +0.000 C 
ENDBRANCH   5   7
BRANCH   1  13
ATOM     13  C   UNL     1      45.993   6.073  12.398  0.00  0.00    +0.000 C 
ATOM     14  C   UNL     1      45.409   7.481  12.529  0.00  0.00    +0.000 C 
ATOM     15  C   UNL     1      46.652   7.275  11.737  0.00  0.00    +0.000 C 
BRANCH  13  20
ATOM     16  C   UNL     1      44.950   3.188   8.116  0.00  0.00    +0.000 A 
ATOM     17  C   UNL     1      45.716   4.346   8.197  0.00  0.00    +0.000 A 
ATOM     18  C   UNL     1      45.829   5.014   9.423  0.00  0.00    +0.000 A 
ATOM     19  C   UNL     1      45.157   4.511  10.526  0.00  0.00    +0.000 A 
ATOM     20  N   UNL     1      45.067   5.141  11.761  0.00  0.00    +0.000 N 
ATOM     21  N   UNL     1      44.424   3.379  10.454  0.00  0.00    +0.000 NA
ATOM     22  C   UNL     1      44.335   2.738   9.273  0.00  0.00    +0.000 A 
ATOM     23  H   UNL     1      44.556   4.498  12.361  0.00  0.00    +0.000 HD
ENDBRANCH  13  20
ENDBRANCH   1  13
TORSDOF 3
ENDMDL
MODEL 9
REMARK VINA RESULT:    -5.514      4.052      8.271
REMARK INTER + INTRA:          -7.187
REMARK INTER:                  -6.927
REMARK INTRA:                  -0.259
REMARK UNBOUND:                -0.705
REMARK  Name = 
REMARK  3 active torsions:
REMARK  status: ('A' for Active; 'I' for Inactive)
REMARK    1  A    between atoms: N_5  and  C_6
REMARK    2  A    between atoms: C_6  and  C_7
REMARK    3  A    between atoms: C_11  and  N_12
REMARK                            x       y       z     vdW  Elec       q    Type
REMARK                         _______ _______ _______ _____ _____    ______ ____
ROOT
ATOM      1  C   UNL     1      47.634   4.919  15.603  0.00  0.00    +0.000 A 
ATOM      2  C   UNL     1      48.450   5.873  15.002  0.00  0.00    +0.000 A 
ATOM      3  N   UNL     1      48.251   6.392  13.771  0.00  0.00    +0.000 NA
ATOM      4  C   UNL     1      47.156   5.944  13.107  0.00  0.00    +0.000 A 
ATOM      5  C   UNL     1      46.263   4.973  13.567  0.00  0.00    +0.000 A 
ATOM      6  C   UNL     1      46.574   4.438  14.818  0.00  0.00    +0.000 A 
ENDROOT
BRANCH   5   7
ATOM      7  N   UNL     1      45.130   4.608  12.875  0.00  0.00    +0.000 N 
ATOM      8  C   UNL     1      45.092   3.488  11.923  0.00  0.00    +0.000 C 
ATOM      9  C   UNL     1      44.718   3.990  10.521  0.00  0.00    +0.000 C 
ATOM     10  O   UNL     1      43.503   4.759  10.540  0.00  0.00    +0.000 OA
ATOM     11  C   UNL     1      43.643   5.893  11.413  0.00  0.00    +0.000 C 
ATOM     12  C   UNL     1      43.934   5.461  12.860  0.00  0.00    +0.000 C 
ENDBRANCH   5   7
BRANCH   1  13
ATOM     13  C   UNL     1      47.795   4.479  17.049  0.00  0.00    +0.000 C 
ATOM     14  C   UNL     1      47.356   3.062  17.420  0.00  0.00    +0.000 C 
ATOM     15  C   UNL     1      48.806   3.363  17.270  0.00  0.00    +0.000 C 
BRANCH  13  20
ATOM     16  C   UNL     1      49.251   8.600  19.990  0.00  0.00    +0.000 A 
ATOM     17  C   UNL     1      50.059   7.586  19.485  0.00  0.00    +0.000 A 
ATOM     18  C   UNL     1      49.477   6.532  18.769  0.00  0.00    +0.000 A 
ATOM     19  C   UNL     1      48.101   6.515  18.599  0.00  0.00    +0.000 A 
ATOM     20  N   UNL     1      47.378   5.470  18.038  0.00  0.00    +0.000 N 
ATOM     21  N   UNL     1      47.316   7.505  19.077  0.00  0.00    +0.000 NA
ATOM     22  C   UNL     1      47.889   8.520  19.750  0.00  0.00    +0.000 A 
ATOM     23  H   UNL     1      46.412   5.786  18.011  0.00  0.00    +0.000 HD
ENDBRANCH  13  20
ENDBRANCH   1  13
TORSDOF 3
ENDMDL
