MODEL 1
REMARK VINA RESULT:    -8.619      0.000      0.000
REMARK INTER + INTRA:         -12.040
REMARK INTER:                 -11.138
REMARK INTRA:                  -0.902
REMARK UNBOUND:                -0.902
REMARK  Name = 
REMARK  6 active torsions:
REMARK  status: ('A' for Active; 'I' for Inactive)
REMARK    1  A    between atoms: C_1  and  C_2
REMARK    2  A    between atoms: C_6  and  C_7
REMARK    3  A    between atoms: C_7  and  C_8
REMARK    4  A    between atoms: C_11  and  C_12
REMARK    5  A    between atoms: C_12  and  N_13
REMARK    6  A    between atoms: C_14  and  C_16
REMARK                            x       y       z     vdW  Elec       q    Type
REMARK                         _______ _______ _______ _____ _____    ______ ____
ROOT
ATOM      1  C   UNL     1      46.565   7.597  12.796  0.00  0.00    +0.000 C 
ENDROOT
BRANCH   1   5
ATOM      2  C   UNL     1      44.953   4.536  10.194  0.00  0.00    +0.000 A 
ATOM      3  C   UNL     1      44.669   4.524  11.566  0.00  0.00    +0.000 A 
ATOM      4  C   UNL     1      45.209   5.498  12.413  0.00  0.00    +0.000 A 
ATOM      5  C   UNL     1      46.032   6.509  11.903  0.00  0.00    +0.000 A 
ATOM      6  C   UNL     1      46.361   6.487  10.542  0.00  0.00    +0.000 A 
ATOM      7  C   UNL     1      45.821   5.516   9.694  0.00  0.00    +0.000 A 
BRANCH   2   8
ATOM      8  C   UNL     1      44.313   3.530   9.266  0.00  0.00    +0.000 C 
BRANCH   8  14
ATOM      9  C   UNL     1      47.319   3.091   5.221  0.00  0.00    +0.000 C 
ATOM     10  C   UNL     1      46.740   2.542   6.486  0.00  0.00    +0.000 A 
ATOM     11  C   UNL     1      47.036   1.258   6.922  0.00  0.00    +0.000 A 
ATOM     12  N   UNL     1      46.529   0.702   8.044  0.00  0.00    +0.000 NA
ATOM     13  C   UNL     1      45.677   1.464   8.766  0.00  0.00    +0.000 A 
ATOM     14  C   UNL     1      45.295   2.757   8.423  0.00  0.00    +0.000 A 
ATOM     15  C   UNL     1      45.857   3.301   7.263  0.00  0.00    +0.000 A 
ENDBRANCH   8  14
ENDBRANCH   2   8
ENDBRANCH   1   5
BRANCH   1  16
ATOM     16  N   UNL     1      47.045   7.072  14.047  0.00  0.00    +0.000 N 
ATOM     17  C   UNL     1      48.359   6.705  14.199  0.00  0.00    +0.000 C 
ATOM     18  O   UNL     1      49.185   6.858  13.306  0.00  0.00    +0.000 OA
ATOM     19  H   UNL     1      46.349   6.724  14.696  0.00  0.00    +0.000 HD
BRANCH  17  20
ATOM     20  C   UNL     1      48.743   6.179  15.515  0.00  0.00    +0.000 A 
ATOM     21  C   UNL     1      49.765   6.793  16.228  0.00  0.00    +0.000 A 
ATOM     22  S   UNL     1      50.046   6.096  17.759  0.00  0.00    +0.000 S 
ATOM     23  C   UNL     1      48.848   4.915  17.501  0.00  0.00    +0.000 A 
ATOM     24  N   UNL     1      48.591   3.963  18.438  0.00  0.00    +0.000 NA
ATOM     25  C   UNL     1      47.686   3.111  18.097  0.00  0.00    +0.000 A 
ATOM     26  N   UNL     1      47.011   3.122  16.905  0.00  0.00    +0.000 N 
ATOM     27  C   UNL     1      47.213   4.079  15.941  0.00  0.00    +0.000 A 
ATOM     28  O   UNL     1      46.564   4.086  14.900  0.00  0.00    +0.000 OA
ATOM     29  C   UNL     1      48.233   5.058  16.270  0.00  0.00    +0.000 A 
ATOM     30  H   UNL     1      46.308   2.427  16.699  0.00  0.00    +0.000 HD
ENDBRANCH  17  20
ENDBRANCH   1  16
TORSDOF 5
ENDMDL
MODEL 2
REMARK VINA RESULT:    -8.111      1.728      2.406
REMARK INTER + INTRA:         -11.384
REMARK INTER:                 -10.591
REMARK INTRA:                  -0.793
REMARK UNBOUND:                -0.902
REMARK  Name = 
REMARK  6 active torsions:
REMARK  status: ('A' for Active; 'I' for Inactive)
REMARK    1  A    between atoms: C_1  and  C_2
REMARK    2  A    between atoms: C_6  and  C_7
REMARK    3  A    between atoms: C_7  and  C_8
REMARK    4  A    between atoms: C_11  and  C_12
REMARK    5  A    between atoms: C_12  and  N_13
REMARK    6  A    between atoms: C_14  and  C_16
REMARK                            x       y       z     vdW  Elec       q    Type
REMARK                         _______ _______ _______ _____ _____    ______ ____
ROOT
ATOM      1  C   UNL     1      47.366   6.725  13.402  0.00  0.00    +0.000 C 
ENDROOT
BRANCH   1   5
ATOM      2  C   UNL     1      45.084   4.583  10.411  0.00  0.00    +0.000 A 
ATOM      3  C   UNL     1      45.751   5.770  10.081  0.00  0.00    +0.000 A 
ATOM      4  C   UNL     1      46.468   6.478  11.051  0.00  0.00    +0.000 A 
ATOM      5  C   UNL     1      46.544   6.004  12.367  0.00  0.00    +0.000 A 
ATOM      6  C   UNL     1      45.832   4.848  12.709  0.00  0.00    +0.000 A 
ATOM      7  C   UNL     1      45.116   4.139  11.740  0.00  0.00    +0.000 A 
BRANCH   2   8
ATOM      8  C   UNL     1      44.371   3.779   9.349  0.00  0.00    +0.000 C 
BRANCH   8  14
ATOM      9  C   UNL     1      47.346   3.080   5.316  0.00  0.00    +0.000 C 
ATOM     10  C   UNL     1      46.713   2.583   6.577  0.00  0.00    +0.000 A 
ATOM     11  C   UNL     1      46.891   1.276   7.012  0.00  0.00    +0.000 A 
ATOM     12  N   UNL     1      46.330   0.766   8.129  0.00  0.00    +0.000 NA
ATOM     13  C   UNL     1      45.547   1.600   8.849  0.00  0.00    +0.000 A 
ATOM     14  C   UNL     1      45.284   2.923   8.508  0.00  0.00    +0.000 A 
ATOM     15  C   UNL     1      45.899   3.416   7.352  0.00  0.00    +0.000 A 
ENDBRANCH   8  14
ENDBRANCH   2   8
ENDBRANCH   1   5
BRANCH   1  16
ATOM     16  N   UNL     1      47.388   6.015  14.654  0.00  0.00    +0.000 N 
ATOM     17  C   UNL     1      48.516   5.998  15.435  0.00  0.00    +0.000 C 
ATOM     18  O   UNL     1      49.526   6.627  15.133  0.00  0.00    +0.000 OA
ATOM     19  H   UNL     1      46.669   5.315  14.797  0.00  0.00    +0.000 HD
BRANCH  17  20
ATOM     20  C   UNL     1      48.432   5.242  16.690  0.00  0.00    +0.000 A 
ATOM     21  C   UNL     1      48.187   3.876  16.654  0.00  0.00    +0.000 A 
ATOM     22  S   UNL     1      48.179   3.141  18.193  0.00  0.00    +0.000 S 
ATOM     23  C   UNL     1      48.449   4.633  18.966  0.00  0.00    +0.000 A 
ATOM     24  N   UNL     1      48.523   4.714  20.322  0.00  0.00    +0.000 NA
ATOM     25  C   UNL     1      48.694   5.909  20.775  0.00  0.00    +0.000 A 
ATOM     26  N   UNL     1      48.798   7.033  19.998  0.00  0.00    +0.000 N 
ATOM     27  C   UNL     1      48.761   6.998  18.625  0.00  0.00    +0.000 A 
ATOM     28  O   UNL     1      48.897   8.016  17.955  0.00  0.00    +0.000 OA
ATOM     29  C   UNL     1      48.557   5.675  18.062  0.00  0.00    +0.000 A 
ATOM     30  H   UNL     1      48.937   7.942  20.414  0.00  0.00    +0.000 HD
ENDBRANCH  17  20
ENDBRANCH   1  16
TORSDOF 5
ENDMDL
MODEL 3
REMARK VINA RESULT:    -7.925      2.514      4.382
REMARK INTER + INTRA:         -11.143
REMARK INTER:                 -10.187
REMARK INTRA:                  -0.956
REMARK UNBOUND:                -0.902
REMARK  Name = 
REMARK  6 active torsions:
REMARK  status: ('A' for Active; 'I' for Inactive)
REMARK    1  A    between atoms: C_1  and  C_2
REMARK    2  A    between atoms: C_6  and  C_7
REMARK    3  A    between atoms: C_7  and  C_8
REMARK    4  A    between atoms: C_11  and  C_12
REMARK    5  A    between atoms: C_12  and  N_13
REMARK    6  A    between atoms: C_14  and  C_16
REMARK                            x       y       z     vdW  Elec       q    Type
REMARK                         _______ _______ _______ _____ _____    ______ ____
ROOT
ATOM      1  C   UNL     1      46.932   5.460  14.158  0.00  0.00    +0.000 C 
ENDROOT
BRANCH   1   5
ATOM      2  C   UNL     1      45.015   4.263  10.465  0.00  0.00    +0.000 A 
ATOM      3  C   UNL     1      45.626   5.519  10.574  0.00  0.00    +0.000 A 
ATOM      4  C   UNL     1      46.225   5.918  11.774  0.00  0.00    +0.000 A 
ATOM      5  C   UNL     1      46.235   5.064  12.883  0.00  0.00    +0.000 A 
ATOM      6  C   UNL     1      45.575   3.832  12.791  0.00  0.00    +0.000 A 
ATOM      7  C   UNL     1      44.978   3.431  11.593  0.00  0.00    +0.000 A 
BRANCH   2   8
ATOM      8  C   UNL     1      44.433   3.801   9.150  0.00  0.00    +0.000 C 
BRANCH   8  14
ATOM      9  C   UNL     1      47.476   2.882   5.213  0.00  0.00    +0.000 C 
ATOM     10  C   UNL     1      46.803   2.447   6.476  0.00  0.00    +0.000 A 
ATOM     11  C   UNL     1      46.937   1.153   6.960  0.00  0.00    +0.000 A 
ATOM     12  N   UNL     1      46.339   0.697   8.082  0.00  0.00    +0.000 NA
ATOM     13  C   UNL     1      45.562   1.576   8.754  0.00  0.00    +0.000 A 
ATOM     14  C   UNL     1      45.342   2.892   8.360  0.00  0.00    +0.000 A 
ATOM     15  C   UNL     1      45.994   3.328   7.202  0.00  0.00    +0.000 A 
ENDBRANCH   8  14
ENDBRANCH   2   8
ENDBRANCH   1   5
BRANCH   1  16
ATOM     16  N   UNL     1      47.364   6.833  14.125  0.00  0.00    +0.000 N 
ATOM     17  C   UNL     1      48.591   7.197  14.617  0.00  0.00    +0.000 C 
ATOM     18  O   UNL     1      49.390   6.373  15.050  0.00  0.00    +0.000 OA
ATOM     19  H   UNL     1      46.645   7.536  13.998  0.00  0.00    +0.000 HD
BRANCH  17  20
ATOM     20  C   UNL     1      48.932   8.623  14.536  0.00  0.00    +0.000 A 
ATOM     21  C   UNL     1      49.122   9.351  15.704  0.00  0.00    +0.000 A 
ATOM     22  S   UNL     1      49.569  10.974  15.433  0.00  0.00    +0.000 S 
ATOM     23  C   UNL     1      49.470  10.776  13.745  0.00  0.00    +0.000 A 
ATOM     24  N   UNL     1      49.713  11.817  12.904  0.00  0.00    +0.000 NA
ATOM     25  C   UNL     1      49.567  11.536  11.655  0.00  0.00    +0.000 A 
ATOM     26  N   UNL     1      49.201  10.310  11.166  0.00  0.00    +0.000 N 
ATOM     27  C   UNL     1      48.976   9.221  11.973  0.00  0.00    +0.000 A 
ATOM     28  O   UNL     1      48.689   8.125  11.503  0.00  0.00    +0.000 OA
ATOM     29  C   UNL     1      49.115   9.486  13.393  0.00  0.00    +0.000 A 
ATOM     30  H   UNL     1      49.109  10.152  10.173  0.00  0.00    +0.000 HD
ENDBRANCH  17  20
ENDBRANCH   1  16
TORSDOF 5
ENDMDL
MODEL 4
REMARK VINA RESULT:    -7.631      2.741      3.860
REMARK INTER + INTRA:         -10.763
REMARK INTER:                 -10.114
REMARK INTRA:                  -0.649
REMARK UNBOUND:                -0.902
REMARK  Name = 
REMARK  6 active torsions:
REMARK  status: ('A' for Active; 'I' for Inactive)
REMARK    1  A    between atoms: C_1  and  C_2
REMARK    2  A    between atoms: C_6  and  C_7
REMARK    3  A    between atoms: C_7  and  C_8
REMARK    4  A    between atoms: C_11  and  C_12
REMARK    5  A    between atoms: C_12  and  N_13
REMARK    6  A    between atoms: C_14  and  C_16
REMARK                            x       y       z     vdW  Elec       q    Type
REMARK                         _______ _______ _______ _____ _____    ______ ____
ROOT
ATOM      1  C   UNL     1      46.844   5.358  14.197  0.00  0.00    +0.000 C 
ENDROOT
BRANCH   1   5
ATOM      2  C   UNL     1      45.045   4.342  10.392  0.00  0.00    +0.000 A 
ATOM      3  C   UNL     1      45.657   5.588  10.579  0.00  0.00    +0.000 A 
ATOM      4  C   UNL     1      46.217   5.929  11.814  0.00  0.00    +0.000 A 
ATOM      5  C   UNL     1      46.188   5.025  12.883  0.00  0.00    +0.000 A 
ATOM      6  C   UNL     1      45.527   3.802  12.713  0.00  0.00    +0.000 A 
ATOM      7  C   UNL     1      44.969   3.459  11.478  0.00  0.00    +0.000 A 
BRANCH   2   8
ATOM      8  C   UNL     1      44.506   3.944   9.038  0.00  0.00    +0.000 C 
BRANCH   8  14
ATOM      9  C   UNL     1      47.542   2.783   5.160  0.00  0.00    +0.000 C 
ATOM     10  C   UNL     1      46.842   2.415   6.430  0.00  0.00    +0.000 A 
ATOM     11  C   UNL     1      46.920   1.132   6.955  0.00  0.00    +0.000 A 
ATOM     12  N   UNL     1      46.295   0.736   8.085  0.00  0.00    +0.000 NA
ATOM     13  C   UNL     1      45.548   1.665   8.722  0.00  0.00    +0.000 A 
ATOM     14  C   UNL     1      45.384   2.976   8.285  0.00  0.00    +0.000 A 
ATOM     15  C   UNL     1      46.062   3.349   7.121  0.00  0.00    +0.000 A 
ENDBRANCH   8  14
ENDBRANCH   2   8
ENDBRANCH   1   5
BRANCH   1  16
ATOM     16  N   UNL     1      47.298   6.723  14.234  0.00  0.00    +0.000 N 
ATOM     17  C   UNL     1      48.492   7.053  14.823  0.00  0.00    +0.000 C 
ATOM     18  O   UNL     1      49.245   6.203  15.288  0.00  0.00    +0.000 OA
ATOM     19  H   UNL     1      46.602   7.442  14.076  0.00  0.00    +0.000 HD
BRANCH  17  20
ATOM     20  C   UNL     1      48.860   8.474  14.808  0.00  0.00    +0.000 A 
ATOM     21  C   UNL     1      49.413   9.028  13.661  0.00  0.00    +0.000 A 
ATOM     22  S   UNL     1      49.727  10.699  13.791  0.00  0.00    +0.000 S 
ATOM     23  C   UNL     1      49.184  10.731  15.404  0.00  0.00    +0.000 A 
ATOM     24  N   UNL     1      49.211  11.881  16.128  0.00  0.00    +0.000 NA
ATOM     25  C   UNL     1      48.806  11.753  17.345  0.00  0.00    +0.000 A 
ATOM     26  N   UNL     1      48.375  10.581  17.908  0.00  0.00    +0.000 N 
ATOM     27  C   UNL     1      48.300   9.400  17.208  0.00  0.00    +0.000 A 
ATOM     28  O   UNL     1      47.872   8.375  17.727  0.00  0.00    +0.000 OA
ATOM     29  C   UNL     1      48.757   9.486  15.833  0.00  0.00    +0.000 A 
ATOM     30  H   UNL     1      48.065  10.547  18.868  0.00  0.00    +0.000 HD
ENDBRANCH  17  20
ENDBRANCH   1  16
TORSDOF 5
ENDMDL
MODEL 5
REMARK VINA RESULT:    -7.581      1.912      3.564
REMARK INTER + INTRA:         -10.699
REMARK INTER:                  -9.737
REMARK INTRA:                  -0.961
REMARK UNBOUND:                -0.902
REMARK  Name = 
REMARK  6 active torsions:
REMARK  status: ('A' for Active; 'I' for Inactive)
REMARK    1  A    between atoms: C_1  and  C_2
REMARK    2  A    between atoms: C_6  and  C_7
REMARK    3  A    between atoms: C_7  and  C_8
REMARK    4  A    between atoms: C_11  and  C_12
REMARK    5  A    between atoms: C_12  and  N_13
REMARK    6  A    between atoms: C_14  and  C_16
REMARK                            x       y       z     vdW  Elec       q    Type
REMARK                         _______ _______ _______ _____ _____    ______ ____
ROOT
ATOM      1  C   UNL     1      46.156   4.359  14.482  0.00  0.00    +0.000 C 
ENDROOT
BRANCH   1   5
ATOM      2  C   UNL     1      45.109   4.284  10.281  0.00  0.00    +0.000 A 
ATOM      3  C   UNL     1      45.732   5.408  10.839  0.00  0.00    +0.000 A 
ATOM      4  C   UNL     1      46.049   5.445  12.200  0.00  0.00    +0.000 A 
ATOM      5  C   UNL     1      45.761   4.354  13.028  0.00  0.00    +0.000 A 
ATOM      6  C   UNL     1      45.088   3.254  12.483  0.00  0.00    +0.000 A 
ATOM      7  C   UNL     1      44.772   3.214  11.121  0.00  0.00    +0.000 A 
BRANCH   2   8
ATOM      8  C   UNL     1      44.833   4.212   8.797  0.00  0.00    +0.000 C 
BRANCH   8  14
ATOM      9  C   UNL     1      46.750  -0.332   7.668  0.00  0.00    +0.000 C 
ATOM     10  C   UNL     1      46.710   1.153   7.489  0.00  0.00    +0.000 A 
ATOM     11  C   UNL     1      47.599   1.806   6.645  0.00  0.00    +0.000 A 
ATOM     12  N   UNL     1      47.623   3.143   6.457  0.00  0.00    +0.000 NA
ATOM     13  C   UNL     1      46.718   3.869   7.151  0.00  0.00    +0.000 A 
ATOM     14  C   UNL     1      45.789   3.329   8.035  0.00  0.00    +0.000 A 
ATOM     15  C   UNL     1      45.786   1.939   8.186  0.00  0.00    +0.000 A 
ENDBRANCH   8  14
ENDBRANCH   2   8
ENDBRANCH   1   5
BRANCH   1  16
ATOM     16  N   UNL     1      47.031   5.459  14.791  0.00  0.00    +0.000 N 
ATOM     17  C   UNL     1      48.048   5.314  15.701  0.00  0.00    +0.000 C 
ATOM     18  O   UNL     1      48.290   4.240  16.242  0.00  0.00    +0.000 OA
ATOM     19  H   UNL     1      46.708   6.386  14.544  0.00  0.00    +0.000 HD
BRANCH  17  20
ATOM     20  C   UNL     1      48.881   6.499  15.944  0.00  0.00    +0.000 A 
ATOM     21  C   UNL     1      49.071   6.950  17.244  0.00  0.00    +0.000 A 
ATOM     22  S   UNL     1      50.110   8.297  17.356  0.00  0.00    +0.000 S 
ATOM     23  C   UNL     1      50.301   8.358  15.666  0.00  0.00    +0.000 A 
ATOM     24  N   UNL     1      51.067   9.320  15.083  0.00  0.00    +0.000 NA
ATOM     25  C   UNL     1      51.094   9.270  13.796  0.00  0.00    +0.000 A 
ATOM     26  N   UNL     1      50.427   8.348  13.034  0.00  0.00    +0.000 N 
ATOM     27  C   UNL     1      49.668   7.340  13.576  0.00  0.00    +0.000 A 
ATOM     28  O   UNL     1      49.115   6.504  12.870  0.00  0.00    +0.000 OA
ATOM     29  C   UNL     1      49.593   7.357  15.026  0.00  0.00    +0.000 A 
ATOM     30  H   UNL     1      50.494   8.359  12.027  0.00  0.00    +0.000 HD
ENDBRANCH  17  20
ENDBRANCH   1  16
TORSDOF 5
ENDMDL
MODEL 6
REMARK VINA RESULT:    -7.559      1.558      2.098
REMARK INTER + INTRA:         -10.670
REMARK INTER:                  -9.851
REMARK INTRA:                  -0.818
REMARK UNBOUND:                -0.902
REMARK  Name = 
REMARK  6 active torsions:
REMARK  status: ('A' for Active; 'I' for Inactive)
REMARK    1  A    between atoms: C_1  and  C_2
REMARK    2  A    between atoms: C_6  and  C_7
REMARK    3  A    between atoms: C_7  and  C_8
REMARK    4  A    between atoms: C_11  and  C_12
REMARK    5  A    between atoms: C_12  and  N_13
REMARK    6  A    between atoms: C_14  and  C_16
REMARK                            x       y       z     vdW  Elec       q    Type
REMARK                         _______ _______ _______ _____ _____    ______ ____
ROOT
ATOM      1  C   UNL     1      47.138   7.541  13.617  0.00  0.00    +0.000 C 
ENDROOT
BRANCH   1   5
ATOM      2  C   UNL     1      44.953   4.752  11.129  0.00  0.00    +0.000 A 
ATOM      3  C   UNL     1      45.106   6.087  10.735  0.00  0.00    +0.000 A 
ATOM      4  C   UNL     1      45.790   6.997  11.548  0.00  0.00    +0.000 A 
ATOM      5  C   UNL     1      46.345   6.585  12.765  0.00  0.00    +0.000 A 
ATOM      6  C   UNL     1      46.144   5.264  13.185  0.00  0.00    +0.000 A 
ATOM      7  C   UNL     1      45.462   4.354  12.372  0.00  0.00    +0.000 A 
BRANCH   2   8
ATOM      8  C   UNL     1      44.279   3.752  10.218  0.00  0.00    +0.000 C 
BRANCH   8  14
ATOM      9  C   UNL     1      46.786   0.180   7.657  0.00  0.00    +0.000 C 
ATOM     10  C   UNL     1      46.333   1.596   7.824  0.00  0.00    +0.000 A 
ATOM     11  C   UNL     1      46.725   2.592   6.940  0.00  0.00    +0.000 A 
ATOM     12  N   UNL     1      46.365   3.889   7.051  0.00  0.00    +0.000 NA
ATOM     13  C   UNL     1      45.577   4.212   8.100  0.00  0.00    +0.000 A 
ATOM     14  C   UNL     1      45.131   3.305   9.057  0.00  0.00    +0.000 A 
ATOM     15  C   UNL     1      45.513   1.969   8.895  0.00  0.00    +0.000 A 
ENDBRANCH   8  14
ENDBRANCH   2   8
ENDBRANCH   1   5
BRANCH   1  16
ATOM     16  N   UNL     1      48.151   6.861  14.380  0.00  0.00    +0.000 N 
ATOM     17  C   UNL     1      48.746   7.465  15.459  0.00  0.00    +0.000 C 
ATOM     18  O   UNL     1      48.405   8.576  15.852  0.00  0.00    +0.000 OA
ATOM     19  H   UNL     1      48.600   6.066  13.940  0.00  0.00    +0.000 HD
BRANCH  17  20
ATOM     20  C   UNL     1      49.768   6.684  16.165  0.00  0.00    +0.000 A 
ATOM     21  C   UNL     1      51.057   7.187  16.285  0.00  0.00    +0.000 A 
ATOM     22  S   UNL     1      52.103   6.184  17.183  0.00  0.00    +0.000 S 
ATOM     23  C   UNL     1      50.885   5.015  17.399  0.00  0.00    +0.000 A 
ATOM     24  N   UNL     1      51.134   3.862  18.075  0.00  0.00    +0.000 NA
ATOM     25  C   UNL     1      50.134   3.051  18.131  0.00  0.00    +0.000 A 
ATOM     26  N   UNL     1      48.905   3.284  17.573  0.00  0.00    +0.000 N 
ATOM     27  C   UNL     1      48.596   4.446  16.907  0.00  0.00    +0.000 A 
ATOM     28  O   UNL     1      47.474   4.643  16.453  0.00  0.00    +0.000 OA
ATOM     29  C   UNL     1      49.693   5.391  16.805  0.00  0.00    +0.000 A 
ATOM     30  H   UNL     1      48.159   2.609  17.656  0.00  0.00    +0.000 HD
ENDBRANCH  17  20
ENDBRANCH   1  16
TORSDOF 5
ENDMDL
MODEL 7
REMARK VINA RESULT:    -7.468      2.662      3.467
REMARK INTER + INTRA:         -10.553
REMARK INTER:                  -9.502
REMARK INTRA:                  -1.050
REMARK UNBOUND:                -0.902
REMARK  Name = 
REMARK  6 active torsions:
REMARK  status: ('A' for Active; 'I' for Inactive)
REMARK    1  A    between atoms: C_1  and  C_2
REMARK    2  A    between atoms: C_6  and  C_7
REMARK    3  A    between atoms: C_7  and  C_8
REMARK    4  A    between atoms: C_11  and  C_12
REMARK    5  A    between atoms: C_12  and  N_13
REMARK    6  A    between atoms: C_14  and  C_16
REMARK                            x       y       z     vdW  Elec       q    Type
REMARK                         _______ _______ _______ _____ _____    ______ ____
ROOT
ATOM      1  C   UNL     1      48.657   6.778  14.207  0.00  0.00    +0.000 C 
ENDROOT
BRANCH   1   5
ATOM      2  C   UNL     1      45.382   5.579  11.642  0.00  0.00    +0.000 A 
ATOM      3  C   UNL     1      46.098   6.754  11.378  0.00  0.00    +0.000 A 
ATOM      4  C   UNL     1      47.140   7.157  12.219  0.00  0.00    +0.000 A 
ATOM      5  C   UNL     1      47.495   6.385  13.332  0.00  0.00    +0.000 A 
ATOM      6  C   UNL     1      46.744   5.241  13.627  0.00  0.00    +0.000 A 
ATOM      7  C   UNL     1      45.703   4.836  12.786  0.00  0.00    +0.000 A 
BRANCH   2   8
ATOM      8  C   UNL     1      44.305   5.103  10.694  0.00  0.00    +0.000 C 
BRANCH   8  14
ATOM      9  C   UNL     1      46.694   3.525   6.522  0.00  0.00    +0.000 C 
ATOM     10  C   UNL     1      45.896   3.249   7.757  0.00  0.00    +0.000 A 
ATOM     11  C   UNL     1      45.471   1.965   8.074  0.00  0.00    +0.000 A 
ATOM     12  N   UNL     1      44.733   1.658   9.162  0.00  0.00    +0.000 NA
ATOM     13  C   UNL     1      44.395   2.684   9.975  0.00  0.00    +0.000 A 
ATOM     14  C   UNL     1      44.750   4.011   9.754  0.00  0.00    +0.000 A 
ATOM     15  C   UNL     1      45.530   4.283   8.625  0.00  0.00    +0.000 A 
ENDBRANCH   8  14
ENDBRANCH   2   8
ENDBRANCH   1   5
BRANCH   1  16
ATOM     16  N   UNL     1      48.283   6.837  15.595  0.00  0.00    +0.000 N 
ATOM     17  C   UNL     1      49.087   6.295  16.565  0.00  0.00    +0.000 C 
ATOM     18  O   UNL     1      50.175   5.792  16.303  0.00  0.00    +0.000 OA
ATOM     19  H   UNL     1      47.308   7.026  15.800  0.00  0.00    +0.000 HD
BRANCH  17  20
ATOM     20  C   UNL     1      48.610   6.408  17.949  0.00  0.00    +0.000 A 
ATOM     21  C   UNL     1      48.588   5.282  18.762  0.00  0.00    +0.000 A 
ATOM     22  S   UNL     1      48.063   5.598  20.354  0.00  0.00    +0.000 S 
ATOM     23  C   UNL     1      47.797   7.241  19.998  0.00  0.00    +0.000 A 
ATOM     24  N   UNL     1      47.311   8.091  20.942  0.00  0.00    +0.000 NA
ATOM     25  C   UNL     1      47.122   9.296  20.526  0.00  0.00    +0.000 A 
ATOM     26  N   UNL     1      47.376   9.733  19.253  0.00  0.00    +0.000 N 
ATOM     27  C   UNL     1      47.896   8.921  18.274  0.00  0.00    +0.000 A 
ATOM     28  O   UNL     1      48.150   9.351  17.155  0.00  0.00    +0.000 OA
ATOM     29  C   UNL     1      48.116   7.547  18.687  0.00  0.00    +0.000 A 
ATOM     30  H   UNL     1      47.212  10.694  18.991  0.00  0.00    +0.000 HD
ENDBRANCH  17  20
ENDBRANCH   1  16
TORSDOF 5
ENDMDL
MODEL 8
REMARK VINA RESULT:    -7.465      2.040      2.717
REMARK INTER + INTRA:         -10.549
REMARK INTER:                  -9.688
REMARK INTRA:                  -0.861
REMARK UNBOUND:                -0.902
REMARK  Name = 
REMARK  6 active torsions:
REMARK  status: ('A' for Active; 'I' for Inactive)
REMARK    1  A    between atoms: C_1  and  C_2
REMARK    2  A    between atoms: C_6  and  C_7
REMARK    3  A    between atoms: C_7  and  C_8
REMARK    4  A    between atoms: C_11  and  C_12
REMARK    5  A    between atoms: C_12  and  N_13
REMARK    6  A    between atoms: C_14  and  C_16
REMARK                            x       y       z     vdW  Elec       q    Type
REMARK                         _______ _______ _______ _____ _____    ______ ____
ROOT
ATOM      1  C   UNL     1      48.629   7.087  13.962  0.00  0.00    +0.000 C 
ENDROOT
BRANCH   1   5
ATOM      2  C   UNL     1      45.306   5.635  11.596  0.00  0.00    +0.000 A 
ATOM      3  C   UNL     1      45.852   6.902  11.354  0.00  0.00    +0.000 A 
ATOM      4  C   UNL     1      46.909   7.384  12.133  0.00  0.00    +0.000 A 
ATOM      5  C   UNL     1      47.450   6.602  13.160  0.00  0.00    +0.000 A 
ATOM      6  C   UNL     1      46.868   5.360  13.439  0.00  0.00    +0.000 A 
ATOM      7  C   UNL     1      45.812   4.876  12.660  0.00  0.00    +0.000 A 
BRANCH   2   8
ATOM      8  C   UNL     1      44.214   5.083  10.709  0.00  0.00    +0.000 C 
BRANCH   8  14
ATOM      9  C   UNL     1      46.633   3.522   6.549  0.00  0.00    +0.000 C 
ATOM     10  C   UNL     1      45.833   3.240   7.781  0.00  0.00    +0.000 A 
ATOM     11  C   UNL     1      45.419   1.952   8.098  0.00  0.00    +0.000 A 
ATOM     12  N   UNL     1      44.680   1.640   9.184  0.00  0.00    +0.000 NA
ATOM     13  C   UNL     1      44.330   2.663   9.994  0.00  0.00    +0.000 A 
ATOM     14  C   UNL     1      44.673   3.994   9.773  0.00  0.00    +0.000 A 
ATOM     15  C   UNL     1      45.454   4.272   8.647  0.00  0.00    +0.000 A 
ENDBRANCH   8  14
ENDBRANCH   2   8
ENDBRANCH   1   5
BRANCH   1  16
ATOM     16  N   UNL     1      48.316   7.184  15.364  0.00  0.00    +0.000 N 
ATOM     17  C   UNL     1      49.242   6.843  16.317  0.00  0.00    +0.000 C 
ATOM     18  O   UNL     1      50.383   6.499  16.024  0.00  0.00    +0.000 OA
ATOM     19  H   UNL     1      47.335   7.234  15.612  0.00  0.00    +0.000 HD
BRANCH  17  20
ATOM     20  C   UNL     1      48.820   6.978  17.717  0.00  0.00    +0.000 A 
ATOM     21  C   UNL     1      48.373   8.207  18.184  0.00  0.00    +0.000 A 
ATOM     22  S   UNL     1      47.866   8.178  19.812  0.00  0.00    +0.000 S 
ATOM     23  C   UNL     1      48.277   6.533  19.966  0.00  0.00    +0.000 A 
ATOM     24  N   UNL     1      48.113   5.880  21.148  0.00  0.00    +0.000 NA
ATOM     25  C   UNL     1      48.499   4.650  21.133  0.00  0.00    +0.000 A 
ATOM     26  N   UNL     1      49.033   4.010  20.046  0.00  0.00    +0.000 N 
ATOM     27  C   UNL     1      49.189   4.618  18.824  0.00  0.00    +0.000 A 
ATOM     28  O   UNL     1      49.633   4.007  17.858  0.00  0.00    +0.000 OA
ATOM     29  C   UNL     1      48.781   6.011  18.789  0.00  0.00    +0.000 A 
ATOM     30  H   UNL     1      49.312   3.041  20.098  0.00  0.00    +0.000 HD
ENDBRANCH  17  20
ENDBRANCH   1  16
TORSDOF 5
ENDMDL
MODEL 9
REMARK VINA RESULT:    -7.315      2.180      2.848
REMARK INTER + INTRA:         -10.355
REMARK INTER:                  -9.622
REMARK INTRA:                  -0.733
REMARK UNBOUND:                -0.902
REMARK  Name = 
REMARK  6 active torsions:
REMARK  status: ('A' for Active; 'I' for Inactive)
REMARK    1  A    between atoms: C_1  and  C_2
REMARK    2  A    between atoms: C_6  and  C_7
REMARK    3  A    between atoms: C_7  and  C_8
REMARK    4  A    between atoms: C_11  and  C_12
REMARK    5  A    between atoms: C_12  and  N_13
REMARK    6  A    between atoms: C_14  and  C_16
REMARK                            x       y       z     vdW  Elec       q    Type
REMARK                         _______ _______ _______ _____ _____    ______ ____
ROOT
ATOM      1  C   UNL     1      47.908   7.054  14.096  0.00  0.00    +0.000 C 
ENDROOT
BRANCH   1   5
ATOM      2  C   UNL     1      45.272   4.811  11.495  0.00  0.00    +0.000 A 
ATOM      3  C   UNL     1      45.436   6.191  11.321  0.00  0.00    +0.000 A 
ATOM      4  C   UNL     1      46.268   6.923  12.175  0.00  0.00    +0.000 A 
ATOM      5  C   UNL     1      46.961   6.286  13.211  0.00  0.00    +0.000 A 
ATOM      6  C   UNL     1      46.753   4.917  13.420  0.00  0.00    +0.000 A 
ATOM      7  C   UNL     1      45.923   4.184  12.566  0.00  0.00    +0.000 A 
BRANCH   2   8
ATOM      8  C   UNL     1      44.432   4.007  10.529  0.00  0.00    +0.000 C 
BRANCH   8  14
ATOM      9  C   UNL     1      46.630   0.397   7.747  0.00  0.00    +0.000 C 
ATOM     10  C   UNL     1      46.229   1.823   7.961  0.00  0.00    +0.000 A 
ATOM     11  C   UNL     1      46.577   2.817   7.057  0.00  0.00    +0.000 A 
ATOM     12  N   UNL     1      46.262   4.122   7.206  0.00  0.00    +0.000 NA
ATOM     13  C   UNL     1      45.568   4.455   8.318  0.00  0.00    +0.000 A 
ATOM     14  C   UNL     1      45.177   3.550   9.300  0.00  0.00    +0.000 A 
ATOM     15  C   UNL     1      45.508   2.206   9.097  0.00  0.00    +0.000 A 
ENDBRANCH   8  14
ENDBRANCH   2   8
ENDBRANCH   1   5
BRANCH   1  16
ATOM     16  N   UNL     1      48.294   6.290  15.253  0.00  0.00    +0.000 N 
ATOM     17  C   UNL     1      48.944   6.885  16.305  0.00  0.00    +0.000 C 
ATOM     18  O   UNL     1      49.172   8.090  16.332  0.00  0.00    +0.000 OA
ATOM     19  H   UNL     1      48.328   5.283  15.147  0.00  0.00    +0.000 HD
BRANCH  17  20
ATOM     20  C   UNL     1      49.293   6.015  17.434  0.00  0.00    +0.000 A 
ATOM     21  C   UNL     1      50.262   5.033  17.271  0.00  0.00    +0.000 A 
ATOM     22  S   UNL     1      50.590   4.151  18.693  0.00  0.00    +0.000 S 
ATOM     23  C   UNL     1      49.410   5.015  19.565  0.00  0.00    +0.000 A 
ATOM     24  N   UNL     1      49.158   4.731  20.871  0.00  0.00    +0.000 NA
ATOM     25  C   UNL     1      48.216   5.436  21.397  0.00  0.00    +0.000 A 
ATOM     26  N   UNL     1      47.501   6.401  20.738  0.00  0.00    +0.000 N 
ATOM     27  C   UNL     1      47.739   6.745  19.430  0.00  0.00    +0.000 A 
ATOM     28  O   UNL     1      47.109   7.642  18.880  0.00  0.00    +0.000 OA
ATOM     29  C   UNL     1      48.785   5.971  18.785  0.00  0.00    +0.000 A 
ATOM     30  H   UNL     1      46.777   6.923  21.209  0.00  0.00    +0.000 HD
ENDBRANCH  17  20
ENDBRANCH   1  16
TORSDOF 5
ENDMDL
