MODEL 1
REMARK VINA RESULT:    -8.021      0.000      0.000
REMARK INTER + INTRA:         -12.209
REMARK INTER:                 -11.303
REMARK INTRA:                  -0.906
REMARK UNBOUND:                -0.906
REMARK  Name = 
REMARK  7 active torsions:
REMARK  status: ('A' for Active; 'I' for Inactive)
REMARK    1  A    between atoms: C_2  and  C_21
REMARK    2  A    between atoms: N_3  and  C_4
REMARK    3  A    between atoms: C_4  and  C_5
REMARK    4  A    between atoms: C_8  and  C_9
REMARK    5  A    between atoms: C_9  and  N_10
REMARK    6  A    between atoms: N_10  and  C_11
REMARK    7  A    between atoms: C_11  and  C_12
REMARK                            x       y       z     vdW  Elec       q    Type
REMARK                         _______ _______ _______ _____ _____    ______ ____
ROOT
ATOM      1  C   UNL     1      47.530   6.113  13.513  0.00  0.00    +0.000 A 
ATOM      2  C   UNL     1      46.799   6.697  12.483  0.00  0.00    +0.000 A 
ATOM      3  C   UNL     1      45.779   5.967  11.880  0.00  0.00    +0.000 A 
ATOM      4  C   UNL     1      45.524   4.658  12.296  0.00  0.00    +0.000 A 
ATOM      5  C   UNL     1      46.317   4.151  13.316  0.00  0.00    +0.000 A 
ATOM      6  N   UNL     1      47.301   4.843  13.933  0.00  0.00    +0.000 NA
ENDROOT
BRANCH   1   7
ATOM      7  C   UNL     1      48.653   6.874  14.179  0.00  0.00    +0.000 C 
BRANCH   7  10
ATOM      8  O   UNL     1      50.559   6.175  16.054  0.00  0.00    +0.000 OA
ATOM      9  C   UNL     1      49.514   6.693  16.450  0.00  0.00    +0.000 C 
ATOM     10  N   UNL     1      48.505   7.049  15.602  0.00  0.00    +0.000 N 
ATOM     11  H   UNL     1      47.734   7.628  15.931  0.00  0.00    +0.000 HD
BRANCH   9  12
ATOM     12  C   UNL     1      49.287   6.949  17.864  0.00  0.00    +0.000 A 
ATOM     13  C   UNL     1      49.184   8.224  18.404  0.00  0.00    +0.000 A 
ATOM     14  S   UNL     1      48.803   8.203  20.075  0.00  0.00    +0.000 S 
ATOM     15  C   UNL     1      48.776   6.499  20.108  0.00  0.00    +0.000 A 
ATOM     16  N   UNL     1      48.489   5.808  21.243  0.00  0.00    +0.000 NA
ATOM     17  C   UNL     1      48.489   4.522  21.098  0.00  0.00    +0.000 A 
ATOM     18  N   UNL     1      48.758   3.864  19.927  0.00  0.00    +0.000 N 
ATOM     19  C   UNL     1      49.138   4.508  18.773  0.00  0.00    +0.000 A 
ATOM     20  O   UNL     1      49.541   3.881  17.817  0.00  0.00    +0.000 OA
ATOM     21  C   UNL     1      49.084   5.957  18.879  0.00  0.00    +0.000 A 
ATOM     22  H   UNL     1      48.797   2.858  19.890  0.00  0.00    +0.000 HD
ENDBRANCH   9  12
ENDBRANCH   7  10
ENDBRANCH   1   7
BRANCH   4  23
ATOM     23  C   UNL     1      44.460   3.797  11.681  0.00  0.00    +0.000 C 
BRANCH  23  24
ATOM     24  N   UNL     1      44.980   2.607  11.021  0.00  0.00    +0.000 NA
ATOM     25  H   UNL     1      44.729   1.767  11.544  0.00  0.00    +0.000 HD
BRANCH  24  26
ATOM     26  C   UNL     1      44.462   2.421   9.658  0.00  0.00    +0.000 C 
BRANCH  26  27
ATOM     27  C   UNL     1      45.591   2.201   8.663  0.00  0.00    +0.000 A 
ATOM     28  N   UNL     1      45.892   0.902   8.346  0.00  0.00    +0.000 NA
ATOM     29  C   UNL     1      46.902   0.683   7.477  0.00  0.00    +0.000 A 
ATOM     30  C   UNL     1      47.614   1.697   6.861  0.00  0.00    +0.000 A 
ATOM     31  C   UNL     1      47.278   3.013   7.163  0.00  0.00    +0.000 A 
ATOM     32  C   UNL     1      46.254   3.278   8.073  0.00  0.00    +0.000 A 
ATOM     33 CL   UNL     1      45.863   4.921   8.417  0.00  0.00    +0.000 Cl
ENDBRANCH  26  27
ENDBRANCH  24  26
ENDBRANCH  23  24
ENDBRANCH   4  23
TORSDOF 7
ENDMDL
MODEL 2
REMARK VINA RESULT:    -7.933      1.460      1.687
REMARK INTER + INTRA:         -12.085
REMARK INTER:                 -11.161
REMARK INTRA:                  -0.924
REMARK UNBOUND:                -0.906
REMARK  Name = 
REMARK  7 active torsions:
REMARK  status: ('A' for Active; 'I' for Inactive)
REMARK    1  A    between atoms: C_2  and  C_21
REMARK    2  A    between atoms: N_3  and  C_4
REMARK    3  A    between atoms: C_4  and  C_5
REMARK    4  A    between atoms: C_8  and  C_9
REMARK    5  A    between atoms: C_9  and  N_10
REMARK    6  A    between atoms: N_10  and  C_11
REMARK    7  A    between atoms: C_11  and  C_12
REMARK                            x       y       z     vdW  Elec       q    Type
REMARK                         _______ _______ _______ _____ _____    ______ ____
ROOT
ATOM      1  C   UNL     1      46.776   5.809  12.734  0.00  0.00    +0.000 A 
ATOM      2  C   UNL     1      46.095   6.212  11.589  0.00  0.00    +0.000 A 
ATOM      3  C   UNL     1      45.154   5.354  11.027  0.00  0.00    +0.000 A 
ATOM      4  C   UNL     1      44.927   4.101  11.600  0.00  0.00    +0.000 A 
ATOM      5  C   UNL     1      45.667   3.777  12.729  0.00  0.00    +0.000 A 
ATOM      6  N   UNL     1      46.573   4.596  13.308  0.00  0.00    +0.000 NA
ENDROOT
BRANCH   1   7
ATOM      7  C   UNL     1      47.814   6.711  13.362  0.00  0.00    +0.000 C 
BRANCH   7  10
ATOM      8  O   UNL     1      50.021   6.685  15.024  0.00  0.00    +0.000 OA
ATOM      9  C   UNL     1      48.906   6.793  15.537  0.00  0.00    +0.000 C 
ATOM     10  N   UNL     1      47.757   6.790  14.800  0.00  0.00    +0.000 N 
ATOM     11  H   UNL     1      46.870   7.053  15.226  0.00  0.00    +0.000 HD
BRANCH   9  12
ATOM     12  C   UNL     1      48.747   6.920  16.977  0.00  0.00    +0.000 A 
ATOM     13  C   UNL     1      48.443   8.118  17.610  0.00  0.00    +0.000 A 
ATOM     14  S   UNL     1      48.206   7.930  19.298  0.00  0.00    +0.000 S 
ATOM     15  C   UNL     1      48.511   6.256  19.214  0.00  0.00    +0.000 A 
ATOM     16  N   UNL     1      48.454   5.460  20.314  0.00  0.00    +0.000 NA
ATOM     17  C   UNL     1      48.690   4.209  20.080  0.00  0.00    +0.000 A 
ATOM     18  N   UNL     1      48.987   3.683  18.851  0.00  0.00    +0.000 N 
ATOM     19  C   UNL     1      49.144   4.451  17.722  0.00  0.00    +0.000 A 
ATOM     20  O   UNL     1      49.583   3.971  16.699  0.00  0.00    +0.000 OA
ATOM     21  C   UNL     1      48.820   5.854  17.931  0.00  0.00    +0.000 A 
ATOM     22  H   UNL     1      49.216   2.708  18.741  0.00  0.00    +0.000 HD
ENDBRANCH   9  12
ENDBRANCH   7  10
ENDBRANCH   1   7
BRANCH   4  23
ATOM     23  C   UNL     1      43.948   3.111  11.040  0.00  0.00    +0.000 C 
BRANCH  23  24
ATOM     24  N   UNL     1      44.000   2.993   9.589  0.00  0.00    +0.000 NA
ATOM     25  H   UNL     1      44.429   3.823   9.175  0.00  0.00    +0.000 HD
BRANCH  24  26
ATOM     26  C   UNL     1      44.784   1.841   9.123  0.00  0.00    +0.000 C 
BRANCH  26  27
ATOM     27  C   UNL     1      45.880   2.270   8.159  0.00  0.00    +0.000 A 
ATOM     28  N   UNL     1      46.046   3.617   7.971  0.00  0.00    +0.000 NA
ATOM     29  C   UNL     1      47.002   4.019   7.107  0.00  0.00    +0.000 A 
ATOM     30  C   UNL     1      47.845   3.149   6.440  0.00  0.00    +0.000 A 
ATOM     31  C   UNL     1      47.693   1.784   6.665  0.00  0.00    +0.000 A 
ATOM     32  C   UNL     1      46.701   1.330   7.535  0.00  0.00    +0.000 A 
ATOM     33 CL   UNL     1      46.546  -0.367   7.792  0.00  0.00    +0.000 Cl
ENDBRANCH  26  27
ENDBRANCH  24  26
ENDBRANCH  23  24
ENDBRANCH   4  23
TORSDOF 7
ENDMDL
MODEL 3
REMARK VINA RESULT:    -7.920      2.681      3.366
REMARK INTER + INTRA:         -12.066
REMARK INTER:                 -11.068
REMARK INTRA:                  -0.999
REMARK UNBOUND:                -0.906
REMARK  Name = 
REMARK  7 active torsions:
REMARK  status: ('A' for Active; 'I' for Inactive)
REMARK    1  A    between atoms: C_2  and  C_21
REMARK    2  A    between atoms: N_3  and  C_4
REMARK    3  A    between atoms: C_4  and  C_5
REMARK    4  A    between atoms: C_8  and  C_9
REMARK    5  A    between atoms: C_9  and  N_10
REMARK    6  A    between atoms: N_10  and  C_11
REMARK    7  A    between atoms: C_11  and  C_12
REMARK                            x       y       z     vdW  Elec       q    Type
REMARK                         _______ _______ _______ _____ _____    ______ ____
ROOT
ATOM      1  C   UNL     1      46.460   4.666  14.362  0.00  0.00    +0.000 A 
ATOM      2  C   UNL     1      47.279   5.595  13.725  0.00  0.00    +0.000 A 
ATOM      3  C   UNL     1      46.910   6.070  12.470  0.00  0.00    +0.000 A 
ATOM      4  C   UNL     1      45.749   5.592  11.860  0.00  0.00    +0.000 A 
ATOM      5  C   UNL     1      45.006   4.652  12.561  0.00  0.00    +0.000 A 
ATOM      6  N   UNL     1      45.327   4.187  13.789  0.00  0.00    +0.000 NA
ENDROOT
BRANCH   1   7
ATOM      7  C   UNL     1      46.837   4.120  15.720  0.00  0.00    +0.000 C 
BRANCH   7  10
ATOM      8  O   UNL     1      47.900   4.552  18.234  0.00  0.00    +0.000 OA
ATOM      9  C   UNL     1      48.677   4.356  17.298  0.00  0.00    +0.000 C 
ATOM     10  N   UNL     1      48.247   4.158  16.017  0.00  0.00    +0.000 N 
ATOM     11  H   UNL     1      48.893   3.829  15.302  0.00  0.00    +0.000 HD
BRANCH   9  12
ATOM     12  C   UNL     1      50.116   4.335  17.505  0.00  0.00    +0.000 A 
ATOM     13  C   UNL     1      50.855   5.457  17.855  0.00  0.00    +0.000 A 
ATOM     14  S   UNL     1      52.507   5.096  18.141  0.00  0.00    +0.000 S 
ATOM     15  C   UNL     1      52.266   3.444  17.797  0.00  0.00    +0.000 A 
ATOM     16  N   UNL     1      53.279   2.541  17.872  0.00  0.00    +0.000 NA
ATOM     17  C   UNL     1      52.929   1.325  17.601  0.00  0.00    +0.000 A 
ATOM     18  N   UNL     1      51.664   0.930  17.254  0.00  0.00    +0.000 N 
ATOM     19  C   UNL     1      50.624   1.811  17.079  0.00  0.00    +0.000 A 
ATOM     20  O   UNL     1      49.573   1.444  16.597  0.00  0.00    +0.000 OA
ATOM     21  C   UNL     1      50.961   3.179  17.439  0.00  0.00    +0.000 A 
ATOM     22  H   UNL     1      51.466  -0.025  17.000  0.00  0.00    +0.000 HD
ENDBRANCH   9  12
ENDBRANCH   7  10
ENDBRANCH   1   7
BRANCH   4  23
ATOM     23  C   UNL     1      45.297   6.036  10.500  0.00  0.00    +0.000 C 
BRANCH  23  24
ATOM     24  N   UNL     1      46.059   5.443   9.409  0.00  0.00    +0.000 NA
ATOM     25  H   UNL     1      46.785   4.822   9.771  0.00  0.00    +0.000 HD
BRANCH  24  26
ATOM     26  C   UNL     1      45.240   4.637   8.493  0.00  0.00    +0.000 C 
BRANCH  26  27
ATOM     27  C   UNL     1      45.998   3.413   8.002  0.00  0.00    +0.000 A 
ATOM     28  N   UNL     1      47.035   3.635   7.133  0.00  0.00    +0.000 NA
ATOM     29  C   UNL     1      47.711   2.561   6.672  0.00  0.00    +0.000 A 
ATOM     30  C   UNL     1      47.441   1.263   7.063  0.00  0.00    +0.000 A 
ATOM     31  C   UNL     1      46.409   1.050   7.973  0.00  0.00    +0.000 A 
ATOM     32  C   UNL     1      45.674   2.134   8.454  0.00  0.00    +0.000 A 
ATOM     33 CL   UNL     1      44.408   1.832   9.584  0.00  0.00    +0.000 Cl
ENDBRANCH  26  27
ENDBRANCH  24  26
ENDBRANCH  23  24
ENDBRANCH   4  23
TORSDOF 7
ENDMDL
MODEL 4
REMARK VINA RESULT:    -7.685      1.914      2.879
REMARK INTER + INTRA:         -11.735
REMARK INTER:                 -10.668
REMARK INTRA:                  -1.067
REMARK UNBOUND:                -0.906
REMARK  Name = 
REMARK  7 active torsions:
REMARK  status: ('A' for Active; 'I' for Inactive)
REMARK    1  A    between atoms: C_2  and  C_21
REMARK    2  A    between atoms: N_3  and  C_4
REMARK    3  A    between atoms: C_4  and  C_5
REMARK    4  A    between atoms: C_8  and  C_9
REMARK    5  A    between atoms: C_9  and  N_10
REMARK    6  A    between atoms: N_10  and  C_11
REMARK    7  A    between atoms: C_11  and  C_12
REMARK                            x       y       z     vdW  Elec       q    Type
REMARK                         _______ _______ _______ _____ _____    ______ ____
ROOT
ATOM      1  C   UNL     1      46.707   4.469  13.991  0.00  0.00    +0.000 A 
ATOM      2  C   UNL     1      47.042   5.736  13.525  0.00  0.00    +0.000 A 
ATOM      3  C   UNL     1      46.425   6.217  12.373  0.00  0.00    +0.000 A 
ATOM      4  C   UNL     1      45.506   5.416  11.692  0.00  0.00    +0.000 A 
ATOM      5  C   UNL     1      45.249   4.158  12.220  0.00  0.00    +0.000 A 
ATOM      6  N   UNL     1      45.817   3.672  13.346  0.00  0.00    +0.000 NA
ENDROOT
BRANCH   1   7
ATOM      7  C   UNL     1      47.368   3.912  15.231  0.00  0.00    +0.000 C 
BRANCH   7  10
ATOM      8  O   UNL     1      49.454   4.257  17.010  0.00  0.00    +0.000 OA
ATOM      9  C   UNL     1      48.420   4.903  17.191  0.00  0.00    +0.000 C 
ATOM     10  N   UNL     1      47.329   4.781  16.380  0.00  0.00    +0.000 N 
ATOM     11  H   UNL     1      46.560   5.446  16.446  0.00  0.00    +0.000 HD
BRANCH   9  12
ATOM     12  C   UNL     1      48.299   5.837  18.299  0.00  0.00    +0.000 A 
ATOM     13  C   UNL     1      48.035   5.444  19.605  0.00  0.00    +0.000 A 
ATOM     14  S   UNL     1      48.064   6.757  20.706  0.00  0.00    +0.000 S 
ATOM     15  C   UNL     1      48.422   7.868  19.464  0.00  0.00    +0.000 A 
ATOM     16  N   UNL     1      48.603   9.192  19.716  0.00  0.00    +0.000 NA
ATOM     17  C   UNL     1      48.888   9.898  18.670  0.00  0.00    +0.000 A 
ATOM     18  N   UNL     1      48.999   9.406  17.396  0.00  0.00    +0.000 N 
ATOM     19  C   UNL     1      48.742   8.096  17.071  0.00  0.00    +0.000 A 
ATOM     20  O   UNL     1      48.675   7.745  15.913  0.00  0.00    +0.000 OA
ATOM     21  C   UNL     1      48.484   7.256  18.231  0.00  0.00    +0.000 A 
ATOM     22  H   UNL     1      49.170  10.017  16.613  0.00  0.00    +0.000 HD
ENDBRANCH   9  12
ENDBRANCH   7  10
ENDBRANCH   1   7
BRANCH   4  23
ATOM     23  C   UNL     1      44.818   5.851  10.432  0.00  0.00    +0.000 C 
BRANCH  23  24
ATOM     24  N   UNL     1      45.517   5.454   9.218  0.00  0.00    +0.000 NA
ATOM     25  H   UNL     1      46.454   5.111   9.436  0.00  0.00    +0.000 HD
BRANCH  24  26
ATOM     26  C   UNL     1      44.841   4.378   8.479  0.00  0.00    +0.000 C 
BRANCH  26  27
ATOM     27  C   UNL     1      45.837   3.353   7.958  0.00  0.00    +0.000 A 
ATOM     28  N   UNL     1      46.876   3.829   7.202  0.00  0.00    +0.000 NA
ATOM     29  C   UNL     1      47.762   2.933   6.716  0.00  0.00    +0.000 A 
ATOM     30  C   UNL     1      47.700   1.577   6.976  0.00  0.00    +0.000 A 
ATOM     31  C   UNL     1      46.661   1.107   7.775  0.00  0.00    +0.000 A 
ATOM     32  C   UNL     1      45.714   2.000   8.277  0.00  0.00    +0.000 A 
ATOM     33 CL   UNL     1      44.444   1.383   9.266  0.00  0.00    +0.000 Cl
ENDBRANCH  26  27
ENDBRANCH  24  26
ENDBRANCH  23  24
ENDBRANCH   4  23
TORSDOF 7
ENDMDL
MODEL 5
REMARK VINA RESULT:    -7.671      1.305      1.983
REMARK INTER + INTRA:         -11.716
REMARK INTER:                 -10.622
REMARK INTRA:                  -1.094
REMARK UNBOUND:                -0.906
REMARK  Name = 
REMARK  7 active torsions:
REMARK  status: ('A' for Active; 'I' for Inactive)
REMARK    1  A    between atoms: C_2  and  C_21
REMARK    2  A    between atoms: N_3  and  C_4
REMARK    3  A    between atoms: C_4  and  C_5
REMARK    4  A    between atoms: C_8  and  C_9
REMARK    5  A    between atoms: C_9  and  N_10
REMARK    6  A    between atoms: N_10  and  C_11
REMARK    7  A    between atoms: C_11  and  C_12
REMARK                            x       y       z     vdW  Elec       q    Type
REMARK                         _______ _______ _______ _____ _____    ______ ____
ROOT
ATOM      1  C   UNL     1      47.418   6.072  13.790  0.00  0.00    +0.000 A 
ATOM      2  C   UNL     1      47.035   6.662  12.589  0.00  0.00    +0.000 A 
ATOM      3  C   UNL     1      46.081   6.026  11.799  0.00  0.00    +0.000 A 
ATOM      4  C   UNL     1      45.547   4.802  12.206  0.00  0.00    +0.000 A 
ATOM      5  C   UNL     1      46.004   4.280  13.409  0.00  0.00    +0.000 A 
ATOM      6  N   UNL     1      46.914   4.883  14.206  0.00  0.00    +0.000 NA
ENDROOT
BRANCH   1   7
ATOM      7  C   UNL     1      48.461   6.730  14.665  0.00  0.00    +0.000 C 
BRANCH   7  10
ATOM      8  O   UNL     1      50.341   5.596  16.344  0.00  0.00    +0.000 OA
ATOM      9  C   UNL     1      49.277   5.978  16.833  0.00  0.00    +0.000 C 
ATOM     10  N   UNL     1      48.279   6.527  16.080  0.00  0.00    +0.000 N 
ATOM     11  H   UNL     1      47.489   6.989  16.528  0.00  0.00    +0.000 HD
BRANCH   9  12
ATOM     12  C   UNL     1      49.015   5.855  18.258  0.00  0.00    +0.000 A 
ATOM     13  C   UNL     1      48.900   4.635  18.912  0.00  0.00    +0.000 A 
ATOM     14  S   UNL     1      48.706   4.811  20.606  0.00  0.00    +0.000 S 
ATOM     15  C   UNL     1      48.766   6.511  20.496  0.00  0.00    +0.000 A 
ATOM     16  N   UNL     1      48.678   7.305  21.596  0.00  0.00    +0.000 NA
ATOM     17  C   UNL     1      48.761   8.572  21.346  0.00  0.00    +0.000 A 
ATOM     18  N   UNL     1      48.913   9.118  20.100  0.00  0.00    +0.000 N 
ATOM     19  C   UNL     1      48.919   8.370  18.947  0.00  0.00    +0.000 A 
ATOM     20  O   UNL     1      48.873   8.904  17.859  0.00  0.00    +0.000 OA
ATOM     21  C   UNL     1      48.897   6.936  19.191  0.00  0.00    +0.000 A 
ATOM     22  H   UNL     1      48.915  10.117  19.964  0.00  0.00    +0.000 HD
ENDBRANCH   9  12
ENDBRANCH   7  10
ENDBRANCH   1   7
BRANCH   4  23
ATOM     23  C   UNL     1      44.535   4.043  11.400  0.00  0.00    +0.000 C 
BRANCH  23  24
ATOM     24  N   UNL     1      45.024   2.765  10.902  0.00  0.00    +0.000 NA
ATOM     25  H   UNL     1      44.748   2.005  11.526  0.00  0.00    +0.000 HD
BRANCH  24  26
ATOM     26  C   UNL     1      44.507   2.420   9.570  0.00  0.00    +0.000 C 
BRANCH  26  27
ATOM     27  C   UNL     1      45.638   2.168   8.584  0.00  0.00    +0.000 A 
ATOM     28  N   UNL     1      45.947   0.859   8.319  0.00  0.00    +0.000 NA
ATOM     29  C   UNL     1      46.959   0.613   7.459  0.00  0.00    +0.000 A 
ATOM     30  C   UNL     1      47.666   1.606   6.806  0.00  0.00    +0.000 A 
ATOM     31  C   UNL     1      47.322   2.931   7.056  0.00  0.00    +0.000 A 
ATOM     32  C   UNL     1      46.296   3.225   7.954  0.00  0.00    +0.000 A 
ATOM     33 CL   UNL     1      45.895   4.878   8.234  0.00  0.00    +0.000 Cl
ENDBRANCH  26  27
ENDBRANCH  24  26
ENDBRANCH  23  24
ENDBRANCH   4  23
TORSDOF 7
ENDMDL
MODEL 6
REMARK VINA RESULT:    -7.464      2.909      3.756
REMARK INTER + INTRA:         -11.424
REMARK INTER:                 -10.638
REMARK INTRA:                  -0.787
REMARK UNBOUND:                -0.906
REMARK  Name = 
REMARK  7 active torsions:
REMARK  status: ('A' for Active; 'I' for Inactive)
REMARK    1  A    between atoms: C_2  and  C_21
REMARK    2  A    between atoms: N_3  and  C_4
REMARK    3  A    between atoms: C_4  and  C_5
REMARK    4  A    between atoms: C_8  and  C_9
REMARK    5  A    between atoms: C_9  and  N_10
REMARK    6  A    between atoms: N_10  and  C_11
REMARK    7  A    between atoms: C_11  and  C_12
REMARK                            x       y       z     vdW  Elec       q    Type
REMARK                         _______ _______ _______ _____ _____    ______ ____
ROOT
ATOM      1  C   UNL     1      48.391   5.862  15.561  0.00  0.00    +0.000 A 
ATOM      2  C   UNL     1      48.189   6.401  14.294  0.00  0.00    +0.000 A 
ATOM      3  C   UNL     1      47.338   5.743  13.409  0.00  0.00    +0.000 A 
ATOM      4  C   UNL     1      46.727   4.548  13.794  0.00  0.00    +0.000 A 
ATOM      5  C   UNL     1      47.003   4.076  15.070  0.00  0.00    +0.000 A 
ATOM      6  N   UNL     1      47.808   4.703  15.957  0.00  0.00    +0.000 NA
ENDROOT
BRANCH   1   7
ATOM      7  C   UNL     1      49.317   6.545  16.542  0.00  0.00    +0.000 C 
BRANCH   7  10
ATOM      8  O   UNL     1      49.713   5.427  19.038  0.00  0.00    +0.000 OA
ATOM      9  C   UNL     1      50.570   5.241  18.173  0.00  0.00    +0.000 C 
ATOM     10  N   UNL     1      50.474   5.773  16.919  0.00  0.00    +0.000 N 
ATOM     11  H   UNL     1      51.101   5.463  16.178  0.00  0.00    +0.000 HD
BRANCH   9  12
ATOM     12  C   UNL     1      51.754   4.441  18.444  0.00  0.00    +0.000 A 
ATOM     13  C   UNL     1      52.848   4.911  19.158  0.00  0.00    +0.000 A 
ATOM     14  S   UNL     1      54.037   3.704  19.414  0.00  0.00    +0.000 S 
ATOM     15  C   UNL     1      53.120   2.539  18.574  0.00  0.00    +0.000 A 
ATOM     16  N   UNL     1      53.548   1.257  18.429  0.00  0.00    +0.000 NA
ATOM     17  C   UNL     1      52.728   0.491  17.784  0.00  0.00    +0.000 A 
ATOM     18  N   UNL     1      51.525   0.891  17.264  0.00  0.00    +0.000 N 
ATOM     19  C   UNL     1      51.083   2.191  17.304  0.00  0.00    +0.000 A 
ATOM     20  O   UNL     1      50.106   2.535  16.676  0.00  0.00    +0.000 OA
ATOM     21  C   UNL     1      51.947   3.068  18.080  0.00  0.00    +0.000 A 
ATOM     22  H   UNL     1      50.955   0.260  16.722  0.00  0.00    +0.000 HD
ENDBRANCH   9  12
ENDBRANCH   7  10
ENDBRANCH   1   7
BRANCH   4  23
ATOM     23  C   UNL     1      45.818   3.767  12.890  0.00  0.00    +0.000 C 
BRANCH  23  24
ATOM     24  N   UNL     1      44.414   3.837  13.271  0.00  0.00    +0.000 NA
ATOM     25  H   UNL     1      44.275   4.527  14.010  0.00  0.00    +0.000 HD
BRANCH  24  26
ATOM     26  C   UNL     1      43.528   4.226  12.164  0.00  0.00    +0.000 C 
BRANCH  26  27
ATOM     27  C   UNL     1      44.172   3.947  10.815  0.00  0.00    +0.000 A 
ATOM     28  N   UNL     1      43.946   2.712  10.265  0.00  0.00    +0.000 NA
ATOM     29  C   UNL     1      44.522   2.438   9.075  0.00  0.00    +0.000 A 
ATOM     30  C   UNL     1      45.286   3.348   8.368  0.00  0.00    +0.000 A 
ATOM     31  C   UNL     1      45.481   4.612   8.917  0.00  0.00    +0.000 A 
ATOM     32  C   UNL     1      44.919   4.924  10.156  0.00  0.00    +0.000 A 
ATOM     33 CL   UNL     1      45.177   6.501  10.803  0.00  0.00    +0.000 Cl
ENDBRANCH  26  27
ENDBRANCH  24  26
ENDBRANCH  23  24
ENDBRANCH   4  23
TORSDOF 7
ENDMDL
MODEL 7
REMARK VINA RESULT:    -7.462      4.789      5.691
REMARK INTER + INTRA:         -11.421
REMARK INTER:                 -10.229
REMARK INTRA:                  -1.193
REMARK UNBOUND:                -0.906
REMARK  Name = 
REMARK  7 active torsions:
REMARK  status: ('A' for Active; 'I' for Inactive)
REMARK    1  A    between atoms: C_2  and  C_21
REMARK    2  A    between atoms: N_3  and  C_4
REMARK    3  A    between atoms: C_4  and  C_5
REMARK    4  A    between atoms: C_8  and  C_9
REMARK    5  A    between atoms: C_9  and  N_10
REMARK    6  A    between atoms: N_10  and  C_11
REMARK    7  A    between atoms: C_11  and  C_12
REMARK                            x       y       z     vdW  Elec       q    Type
REMARK                         _______ _______ _______ _____ _____    ______ ____
ROOT
ATOM      1  C   UNL     1      45.035   7.368  12.493  0.00  0.00    +0.000 A 
ATOM      2  C   UNL     1      43.957   7.142  11.642  0.00  0.00    +0.000 A 
ATOM      3  C   UNL     1      43.587   5.831  11.354  0.00  0.00    +0.000 A 
ATOM      4  C   UNL     1      44.313   4.770  11.899  0.00  0.00    +0.000 A 
ATOM      5  C   UNL     1      45.385   5.091  12.721  0.00  0.00    +0.000 A 
ATOM      6  N   UNL     1      45.755   6.353  13.034  0.00  0.00    +0.000 NA
ENDROOT
BRANCH   1   7
ATOM      7  C   UNL     1      45.470   8.779  12.816  0.00  0.00    +0.000 C 
BRANCH   7  10
ATOM      8  O   UNL     1      47.926   9.372  13.937  0.00  0.00    +0.000 OA
ATOM      9  C   UNL     1      47.798   9.488  12.717  0.00  0.00    +0.000 C 
ATOM     10  N   UNL     1      46.618   9.242  12.076  0.00  0.00    +0.000 N 
ATOM     11  H   UNL     1      46.586   9.177  11.060  0.00  0.00    +0.000 HD
BRANCH   9  12
ATOM     12  C   UNL     1      48.910   9.910  11.879  0.00  0.00    +0.000 A 
ATOM     13  C   UNL     1      49.068  11.209  11.415  0.00  0.00    +0.000 A 
ATOM     14  S   UNL     1      50.531  11.426  10.549  0.00  0.00    +0.000 S 
ATOM     15  C   UNL     1      50.974   9.795  10.772  0.00  0.00    +0.000 A 
ATOM     16  N   UNL     1      52.145   9.298  10.293  0.00  0.00    +0.000 NA
ATOM     17  C   UNL     1      52.343   8.048  10.564  0.00  0.00    +0.000 A 
ATOM     18  N   UNL     1      51.474   7.248  11.259  0.00  0.00    +0.000 N 
ATOM     19  C   UNL     1      50.241   7.674  11.689  0.00  0.00    +0.000 A 
ATOM     20  O   UNL     1      49.433   6.887  12.136  0.00  0.00    +0.000 OA
ATOM     21  C   UNL     1      50.010   9.092  11.463  0.00  0.00    +0.000 A 
ATOM     22  H   UNL     1      51.660   6.266  11.390  0.00  0.00    +0.000 HD
ENDBRANCH   9  12
ENDBRANCH   7  10
ENDBRANCH   1   7
BRANCH   4  23
ATOM     23  C   UNL     1      43.994   3.331  11.618  0.00  0.00    +0.000 C 
BRANCH  23  24
ATOM     24  N   UNL     1      45.026   2.641  10.856  0.00  0.00    +0.000 NA
ATOM     25  H   UNL     1      45.375   1.832  11.373  0.00  0.00    +0.000 HD
BRANCH  24  26
ATOM     26  C   UNL     1      44.556   2.137   9.558  0.00  0.00    +0.000 C 
BRANCH  26  27
ATOM     27  C   UNL     1      45.684   2.097   8.538  0.00  0.00    +0.000 A 
ATOM     28  N   UNL     1      46.142   0.859   8.170  0.00  0.00    +0.000 NA
ATOM     29  C   UNL     1      47.154   0.802   7.278  0.00  0.00    +0.000 A 
ATOM     30  C   UNL     1      47.718   1.918   6.689  0.00  0.00    +0.000 A 
ATOM     31  C   UNL     1      47.223   3.170   7.043  0.00  0.00    +0.000 A 
ATOM     32  C   UNL     1      46.192   3.269   7.978  0.00  0.00    +0.000 A 
ATOM     33 CL   UNL     1      45.601   4.836   8.388  0.00  0.00    +0.000 Cl
ENDBRANCH  26  27
ENDBRANCH  24  26
ENDBRANCH  23  24
ENDBRANCH   4  23
TORSDOF 7
ENDMDL
MODEL 8
REMARK VINA RESULT:    -7.435      4.251      8.589
REMARK INTER + INTRA:         -11.384
REMARK INTER:                 -10.068
REMARK INTRA:                  -1.316
REMARK UNBOUND:                -0.906
REMARK  Name = 
REMARK  7 active torsions:
REMARK  status: ('A' for Active; 'I' for Inactive)
REMARK    1  A    between atoms: C_2  and  C_21
REMARK    2  A    between atoms: N_3  and  C_4
REMARK    3  A    between atoms: C_4  and  C_5
REMARK    4  A    between atoms: C_8  and  C_9
REMARK    5  A    between atoms: C_9  and  N_10
REMARK    6  A    between atoms: N_10  and  C_11
REMARK    7  A    between atoms: C_11  and  C_12
REMARK                            x       y       z     vdW  Elec       q    Type
REMARK                         _______ _______ _______ _____ _____    ______ ____
ROOT
ATOM      1  C   UNL     1      48.458   7.857  13.679  0.00  0.00    +0.000 A 
ATOM      2  C   UNL     1      48.151   8.989  14.426  0.00  0.00    +0.000 A 
ATOM      3  C   UNL     1      48.241   8.926  15.814  0.00  0.00    +0.000 A 
ATOM      4  C   UNL     1      48.608   7.730  16.432  0.00  0.00    +0.000 A 
ATOM      5  C   UNL     1      48.876   6.646  15.607  0.00  0.00    +0.000 A 
ATOM      6  N   UNL     1      48.817   6.682  14.257  0.00  0.00    +0.000 NA
ENDROOT
BRANCH   1   7
ATOM      7  C   UNL     1      48.359   7.887  12.171  0.00  0.00    +0.000 C 
BRANCH   7  10
ATOM      8  O   UNL     1      45.665   7.967  11.561  0.00  0.00    +0.000 OA
ATOM      9  C   UNL     1      46.291   6.938  11.303  0.00  0.00    +0.000 C 
ATOM     10  N   UNL     1      47.618   6.796  11.590  0.00  0.00    +0.000 N 
ATOM     11  H   UNL     1      48.146   6.011  11.212  0.00  0.00    +0.000 HD
BRANCH   9  12
ATOM     12  C   UNL     1      45.641   5.797  10.679  0.00  0.00    +0.000 A 
ATOM     13  C   UNL     1      45.789   5.471   9.337  0.00  0.00    +0.000 A 
ATOM     14  S   UNL     1      44.995   4.010   8.922  0.00  0.00    +0.000 S 
ATOM     15  C   UNL     1      44.437   3.790  10.517  0.00  0.00    +0.000 A 
ATOM     16  N   UNL     1      43.696   2.709  10.876  0.00  0.00    +0.000 NA
ATOM     17  C   UNL     1      43.368   2.679  12.128  0.00  0.00    +0.000 A 
ATOM     18  N   UNL     1      43.704   3.634  13.050  0.00  0.00    +0.000 N 
ATOM     19  C   UNL     1      44.375   4.789  12.726  0.00  0.00    +0.000 A 
ATOM     20  O   UNL     1      44.491   5.687  13.532  0.00  0.00    +0.000 OA
ATOM     21  C   UNL     1      44.819   4.827  11.342  0.00  0.00    +0.000 A 
ATOM     22  H   UNL     1      43.371   3.583  14.000  0.00  0.00    +0.000 HD
ENDBRANCH   9  12
ENDBRANCH   7  10
ENDBRANCH   1   7
BRANCH   4  23
ATOM     23  C   UNL     1      48.703   7.574  17.921  0.00  0.00    +0.000 C 
BRANCH  23  24
ATOM     24  N   UNL     1      47.466   7.117  18.541  0.00  0.00    +0.000 NA
ATOM     25  H   UNL     1      46.764   6.903  17.831  0.00  0.00    +0.000 HD
BRANCH  24  26
ATOM     26  C   UNL     1      47.631   5.898  19.346  0.00  0.00    +0.000 C 
BRANCH  26  27
ATOM     27  C   UNL     1      48.008   4.708  18.476  0.00  0.00    +0.000 A 
ATOM     28  N   UNL     1      47.043   4.231  17.628  0.00  0.00    +0.000 NA
ATOM     29  C   UNL     1      47.352   3.165  16.859  0.00  0.00    +0.000 A 
ATOM     30  C   UNL     1      48.595   2.561  16.853  0.00  0.00    +0.000 A 
ATOM     31  C   UNL     1      49.580   3.074  17.693  0.00  0.00    +0.000 A 
ATOM     32  C   UNL     1      49.291   4.161  18.518  0.00  0.00    +0.000 A 
ATOM     33 CL   UNL     1      50.537   4.773  19.540  0.00  0.00    +0.000 Cl
ENDBRANCH  26  27
ENDBRANCH  24  26
ENDBRANCH  23  24
ENDBRANCH   4  23
TORSDOF 7
ENDMDL
MODEL 9
REMARK VINA RESULT:    -7.147      2.251      2.720
REMARK INTER + INTRA:         -10.978
REMARK INTER:                  -9.980
REMARK INTRA:                  -0.998
REMARK UNBOUND:                -0.906
REMARK  Name = 
REMARK  7 active torsions:
REMARK  status: ('A' for Active; 'I' for Inactive)
REMARK    1  A    between atoms: C_2  and  C_21
REMARK    2  A    between atoms: N_3  and  C_4
REMARK    3  A    between atoms: C_4  and  C_5
REMARK    4  A    between atoms: C_8  and  C_9
REMARK    5  A    between atoms: C_9  and  N_10
REMARK    6  A    between atoms: N_10  and  C_11
REMARK    7  A    between atoms: C_11  and  C_12
REMARK                            x       y       z     vdW  Elec       q    Type
REMARK                         _______ _______ _______ _____ _____    ______ ____
ROOT
ATOM      1  C   UNL     1      45.883   6.872  12.593  0.00  0.00    +0.000 A 
ATOM      2  C   UNL     1      44.587   7.058  12.121  0.00  0.00    +0.000 A 
ATOM      3  C   UNL     1      43.870   5.955  11.667  0.00  0.00    +0.000 A 
ATOM      4  C   UNL     1      44.465   4.692  11.667  0.00  0.00    +0.000 A 
ATOM      5  C   UNL     1      45.769   4.605  12.136  0.00  0.00    +0.000 A 
ATOM      6  N   UNL     1      46.483   5.655  12.601  0.00  0.00    +0.000 NA
ENDROOT
BRANCH   1   7
ATOM      7  C   UNL     1      46.695   8.050  13.080  0.00  0.00    +0.000 C 
BRANCH   7  10
ATOM      8  O   UNL     1      47.843   8.961  15.424  0.00  0.00    +0.000 OA
ATOM      9  C   UNL     1      48.502   8.208  14.705  0.00  0.00    +0.000 C 
ATOM     10  N   UNL     1      48.029   7.727  13.518  0.00  0.00    +0.000 N 
ATOM     11  H   UNL     1      48.519   6.977  13.034  0.00  0.00    +0.000 HD
BRANCH   9  12
ATOM     12  C   UNL     1      49.844   7.791  15.081  0.00  0.00    +0.000 A 
ATOM     13  C   UNL     1      50.994   8.440  14.653  0.00  0.00    +0.000 A 
ATOM     14  S   UNL     1      52.417   7.789  15.353  0.00  0.00    +0.000 S 
ATOM     15  C   UNL     1      51.527   6.630  16.230  0.00  0.00    +0.000 A 
ATOM     16  N   UNL     1      52.130   5.743  17.065  0.00  0.00    +0.000 NA
ATOM     17  C   UNL     1      51.313   4.943  17.672  0.00  0.00    +0.000 A 
ATOM     18  N   UNL     1      49.953   4.943  17.514  0.00  0.00    +0.000 N 
ATOM     19  C   UNL     1      49.299   5.756  16.621  0.00  0.00    +0.000 A 
ATOM     20  O   UNL     1      48.121   5.597  16.382  0.00  0.00    +0.000 OA
ATOM     21  C   UNL     1      50.176   6.716  15.969  0.00  0.00    +0.000 A 
ATOM     22  H   UNL     1      49.374   4.257  17.974  0.00  0.00    +0.000 HD
ENDBRANCH   9  12
ENDBRANCH   7  10
ENDBRANCH   1   7
BRANCH   4  23
ATOM     23  C   UNL     1      43.768   3.459  11.171  0.00  0.00    +0.000 C 
BRANCH  23  24
ATOM     24  N   UNL     1      44.677   2.417  10.715  0.00  0.00    +0.000 NA
ATOM     25  H   UNL     1      44.645   1.610  11.342  0.00  0.00    +0.000 HD
BRANCH  24  26
ATOM     26  C   UNL     1      44.362   1.913   9.371  0.00  0.00    +0.000 C 
BRANCH  26  27
ATOM     27  C   UNL     1      45.586   1.946   8.466  0.00  0.00    +0.000 A 
ATOM     28  N   UNL     1      46.158   0.740   8.157  0.00  0.00    +0.000 NA
ATOM     29  C   UNL     1      47.255   0.748   7.369  0.00  0.00    +0.000 A 
ATOM     30  C   UNL     1      47.800   1.898   6.828  0.00  0.00    +0.000 A 
ATOM     31  C   UNL     1      47.190   3.115   7.120  0.00  0.00    +0.000 A 
ATOM     32  C   UNL     1      46.068   3.148   7.948  0.00  0.00    +0.000 A 
ATOM     33 CL   UNL     1      45.337   4.673   8.282  0.00  0.00    +0.000 Cl
ENDBRANCH  26  27
ENDBRANCH  24  26
ENDBRANCH  23  24
ENDBRANCH   4  23
TORSDOF 7
ENDMDL
