MODEL 1
REMARK VINA RESULT:    -7.611      0.000      0.000
REMARK INTER + INTRA:         -10.617
REMARK INTER:                  -9.836
REMARK INTRA:                  -0.781
REMARK UNBOUND:                -0.781
REMARK  Name = 
REMARK  5 active torsions:
REMARK  status: ('A' for Active; 'I' for Inactive)
REMARK    1  A    between atoms: C_2  and  C_4
REMARK    2  A    between atoms: C_8  and  O_9
REMARK    3  A    between atoms: O_9  and  C_10
REMARK    4  A    between atoms: C_10  and  C_11
REMARK    5  A    between atoms: C_16  and  C_17
REMARK                            x       y       z     vdW  Elec       q    Type
REMARK                         _______ _______ _______ _____ _____    ______ ____
ROOT
ATOM      1  C   UNL     1      45.727   5.718  11.762  0.00  0.00    +0.000 A 
ATOM      2  C   UNL     1      45.853   4.729  12.741  0.00  0.00    +0.000 A 
ATOM      3  C   UNL     1      46.861   4.828  13.686  0.00  0.00    +0.000 A 
ATOM      4  F   UNL     1      46.984   3.877  14.621  0.00  0.00    +0.000 F 
ATOM      5  C   UNL     1      47.779   5.874  13.654  0.00  0.00    +0.000 A 
ATOM      6  C   UNL     1      47.733   6.831  12.632  0.00  0.00    +0.000 A 
ATOM      7  C   UNL     1      46.640   6.784  11.746  0.00  0.00    +0.000 A 
ENDROOT
BRANCH   6   8
ATOM      8  C   UNL     1      48.846   7.850  12.386  0.00  0.00    +0.000 C 
ATOM      9  C   UNL     1      49.504   8.284  13.717  0.00  0.00    +0.000 C 
ATOM     10  C   UNL     1      48.548   9.146  14.547  0.00  0.00    +0.000 C 
ATOM     11  N   UNL     1      48.156  10.359  13.837  0.00  0.00    +0.000 NA
ATOM     12  C   UNL     1      47.571  10.072  12.526  0.00  0.00    +0.000 C 
ATOM     13  C   UNL     1      48.437   9.148  11.659  0.00  0.00    +0.000 C 
ATOM     14  H   UNL     1      48.974  10.954  13.715  0.00  0.00    +0.000 HD
ENDBRANCH   6   8
BRANCH   1  15
ATOM     15  C   UNL     1      44.630   5.637  10.736  0.00  0.00    +0.000 C 
BRANCH  15  16
ATOM     16  O   UNL     1      45.239   5.409   9.472  0.00  0.00    +0.000 OA
BRANCH  16  21
ATOM     17  C   UNL     1      46.525   2.634   7.543  0.00  0.00    +0.000 A 
ATOM     18  C   UNL     1      45.834   1.541   8.075  0.00  0.00    +0.000 A 
ATOM     19  C   UNL     1      44.928   1.728   9.116  0.00  0.00    +0.000 A 
ATOM     20  C   UNL     1      44.700   3.009   9.623  0.00  0.00    +0.000 A 
ATOM     21  C   UNL     1      45.371   4.107   9.081  0.00  0.00    +0.000 A 
ATOM     22  C   UNL     1      46.275   3.919   8.035  0.00  0.00    +0.000 A 
BRANCH  17  24
ATOM     23  N   UNL     1      47.366   3.139   5.315  0.00  0.00    +0.000 N 
ATOM     24  C   UNL     1      47.508   2.400   6.456  0.00  0.00    +0.000 C 
ATOM     25  O   UNL     1      48.434   1.610   6.585  0.00  0.00    +0.000 OA
ATOM     26  H   UNL     1      48.098   3.047   4.623  0.00  0.00    +0.000 HD
ATOM     27  H   UNL     1      46.766   3.950   5.263  0.00  0.00    +0.000 HD
ENDBRANCH  17  24
ENDBRANCH  16  21
ENDBRANCH  15  16
ENDBRANCH   1  15
TORSDOF 5
ENDMDL
MODEL 2
REMARK VINA RESULT:    -7.021      4.484      7.953
REMARK INTER + INTRA:          -9.854
REMARK INTER:                  -9.918
REMARK INTRA:                   0.064
REMARK UNBOUND:                -0.781
REMARK  Name = 
REMARK  5 active torsions:
REMARK  status: ('A' for Active; 'I' for Inactive)
REMARK    1  A    between atoms: C_2  and  C_4
REMARK    2  A    between atoms: C_8  and  O_9
REMARK    3  A    between atoms: O_9  and  C_10
REMARK    4  A    between atoms: C_10  and  C_11
REMARK    5  A    between atoms: C_16  and  C_17
REMARK                            x       y       z     vdW  Elec       q    Type
REMARK                         _______ _______ _______ _____ _____    ______ ____
ROOT
ATOM      1  C   UNL     1      46.713   4.625  13.433  0.00  0.00    +0.000 A 
ATOM      2  C   UNL     1      47.503   5.762  13.242  0.00  0.00    +0.000 A 
ATOM      3  C   UNL     1      47.093   6.736  12.347  0.00  0.00    +0.000 A 
ATOM      4  F   UNL     1      47.854   7.823  12.161  0.00  0.00    +0.000 F 
ATOM      5  C   UNL     1      45.929   6.584  11.601  0.00  0.00    +0.000 A 
ATOM      6  C   UNL     1      45.163   5.416  11.704  0.00  0.00    +0.000 A 
ATOM      7  C   UNL     1      45.527   4.486  12.696  0.00  0.00    +0.000 A 
ENDROOT
BRANCH   6   8
ATOM      8  C   UNL     1      44.025   5.070  10.743  0.00  0.00    +0.000 C 
ATOM      9  C   UNL     1      42.899   4.301  11.472  0.00  0.00    +0.000 C 
ATOM     10  C   UNL     1      43.354   2.888  11.849  0.00  0.00    +0.000 C 
ATOM     11  N   UNL     1      43.727   2.107  10.674  0.00  0.00    +0.000 NA
ATOM     12  C   UNL     1      44.752   2.771   9.867  0.00  0.00    +0.000 C 
ATOM     13  C   UNL     1      44.404   4.222   9.510  0.00  0.00    +0.000 C 
ATOM     14  H   UNL     1      42.899   1.950  10.100  0.00  0.00    +0.000 HD
ENDBRANCH   6   8
BRANCH   1  15
ATOM     15  C   UNL     1      47.133   3.563  14.412  0.00  0.00    +0.000 C 
BRANCH  15  16
ATOM     16  O   UNL     1      46.623   3.927  15.688  0.00  0.00    +0.000 OA
BRANCH  16  21
ATOM     17  C   UNL     1      49.627   3.193  17.561  0.00  0.00    +0.000 A 
ATOM     18  C   UNL     1      49.540   4.074  18.642  0.00  0.00    +0.000 A 
ATOM     19  C   UNL     1      48.462   4.949  18.744  0.00  0.00    +0.000 A 
ATOM     20  C   UNL     1      47.460   4.941  17.771  0.00  0.00    +0.000 A 
ATOM     21  C   UNL     1      47.532   4.049  16.701  0.00  0.00    +0.000 A 
ATOM     22  C   UNL     1      48.609   3.168  16.602  0.00  0.00    +0.000 A 
BRANCH  17  24
ATOM     23  N   UNL     1      51.862   2.556  18.287  0.00  0.00    +0.000 N 
ATOM     24  C   UNL     1      50.804   2.294  17.462  0.00  0.00    +0.000 C 
ATOM     25  O   UNL     1      50.817   1.331  16.707  0.00  0.00    +0.000 OA
ATOM     26  H   UNL     1      52.614   1.880  18.287  0.00  0.00    +0.000 HD
ATOM     27  H   UNL     1      51.796   3.188  19.072  0.00  0.00    +0.000 HD
ENDBRANCH  17  24
ENDBRANCH  16  21
ENDBRANCH  15  16
ENDBRANCH   1  15
TORSDOF 5
ENDMDL
MODEL 3
REMARK VINA RESULT:    -6.824      4.185      7.738
REMARK INTER + INTRA:          -9.599
REMARK INTER:                  -8.763
REMARK INTRA:                  -0.836
REMARK UNBOUND:                -0.781
REMARK  Name = 
REMARK  5 active torsions:
REMARK  status: ('A' for Active; 'I' for Inactive)
REMARK    1  A    between atoms: C_2  and  C_4
REMARK    2  A    between atoms: C_8  and  O_9
REMARK    3  A    between atoms: O_9  and  C_10
REMARK    4  A    between atoms: C_10  and  C_11
REMARK    5  A    between atoms: C_16  and  C_17
REMARK                            x       y       z     vdW  Elec       q    Type
REMARK                         _______ _______ _______ _____ _____    ______ ____
ROOT
ATOM      1  C   UNL     1      47.219   7.650  12.671  0.00  0.00    +0.000 A 
ATOM      2  C   UNL     1      46.708   8.949  12.615  0.00  0.00    +0.000 A 
ATOM      3  C   UNL     1      45.417   9.156  12.160  0.00  0.00    +0.000 A 
ATOM      4  F   UNL     1      44.930  10.403  12.103  0.00  0.00    +0.000 F 
ATOM      5  C   UNL     1      44.631   8.097  11.717  0.00  0.00    +0.000 A 
ATOM      6  C   UNL     1      45.145   6.795  11.677  0.00  0.00    +0.000 A 
ATOM      7  C   UNL     1      46.415   6.581  12.245  0.00  0.00    +0.000 A 
ENDROOT
BRANCH   6   8
ATOM      8  C   UNL     1      44.441   5.635  10.973  0.00  0.00    +0.000 C 
ATOM      9  C   UNL     1      42.983   5.490  11.468  0.00  0.00    +0.000 C 
ATOM     10  C   UNL     1      42.942   4.976  12.910  0.00  0.00    +0.000 C 
ATOM     11  N   UNL     1      43.580   3.670  13.039  0.00  0.00    +0.000 NA
ATOM     12  C   UNL     1      44.956   3.672  12.541  0.00  0.00    +0.000 C 
ATOM     13  C   UNL     1      45.092   4.245  11.124  0.00  0.00    +0.000 C 
ATOM     14  H   UNL     1      43.037   2.981  12.521  0.00  0.00    +0.000 HD
ENDBRANCH   6   8
BRANCH   1  15
ATOM     15  C   UNL     1      48.614   7.402  13.176  0.00  0.00    +0.000 C 
BRANCH  15  16
ATOM     16  O   UNL     1      48.613   6.149  13.847  0.00  0.00    +0.000 OA
BRANCH  16  21
ATOM     17  C   UNL     1      48.003   4.884  17.178  0.00  0.00    +0.000 A 
ATOM     18  C   UNL     1      48.331   5.975  17.988  0.00  0.00    +0.000 A 
ATOM     19  C   UNL     1      48.784   7.159  17.413  0.00  0.00    +0.000 A 
ATOM     20  C   UNL     1      48.901   7.263  16.025  0.00  0.00    +0.000 A 
ATOM     21  C   UNL     1      48.555   6.183  15.211  0.00  0.00    +0.000 A 
ATOM     22  C   UNL     1      48.096   4.999  15.788  0.00  0.00    +0.000 A 
BRANCH  17  24
ATOM     23  N   UNL     1      48.241   3.207  18.927  0.00  0.00    +0.000 N 
ATOM     24  C   UNL     1      47.554   3.624  17.822  0.00  0.00    +0.000 C 
ATOM     25  O   UNL     1      46.583   3.002  17.410  0.00  0.00    +0.000 OA
ATOM     26  H   UNL     1      47.865   2.407  19.418  0.00  0.00    +0.000 HD
ATOM     27  H   UNL     1      48.887   3.804  19.424  0.00  0.00    +0.000 HD
ENDBRANCH  17  24
ENDBRANCH  16  21
ENDBRANCH  15  16
ENDBRANCH   1  15
TORSDOF 5
ENDMDL
MODEL 4
REMARK VINA RESULT:    -6.704      3.343      7.130
REMARK INTER + INTRA:          -9.445
REMARK INTER:                  -9.297
REMARK INTRA:                  -0.148
REMARK UNBOUND:                -0.781
REMARK  Name = 
REMARK  5 active torsions:
REMARK  status: ('A' for Active; 'I' for Inactive)
REMARK    1  A    between atoms: C_2  and  C_4
REMARK    2  A    between atoms: C_8  and  O_9
REMARK    3  A    between atoms: O_9  and  C_10
REMARK    4  A    between atoms: C_10  and  C_11
REMARK    5  A    between atoms: C_16  and  C_17
REMARK                            x       y       z     vdW  Elec       q    Type
REMARK                         _______ _______ _______ _____ _____    ______ ____
ROOT
ATOM      1  C   UNL     1      47.089   6.885  12.425  0.00  0.00    +0.000 A 
ATOM      2  C   UNL     1      47.307   6.096  13.557  0.00  0.00    +0.000 A 
ATOM      3  C   UNL     1      46.635   4.893  13.690  0.00  0.00    +0.000 A 
ATOM      4  F   UNL     1      46.841   4.139  14.778  0.00  0.00    +0.000 F 
ATOM      5  C   UNL     1      45.714   4.473  12.736  0.00  0.00    +0.000 A 
ATOM      6  C   UNL     1      45.408   5.283  11.635  0.00  0.00    +0.000 A 
ATOM      7  C   UNL     1      46.176   6.448  11.452  0.00  0.00    +0.000 A 
ENDROOT
BRANCH   6   8
ATOM      8  C   UNL     1      44.236   5.010  10.691  0.00  0.00    +0.000 C 
ATOM      9  C   UNL     1      43.105   4.247  11.420  0.00  0.00    +0.000 C 
ATOM     10  C   UNL     1      43.525   2.806  11.728  0.00  0.00    +0.000 C 
ATOM     11  N   UNL     1      43.843   2.063  10.513  0.00  0.00    +0.000 NA
ATOM     12  C   UNL     1      44.868   2.728   9.706  0.00  0.00    +0.000 C 
ATOM     13  C   UNL     1      44.556   4.202   9.417  0.00  0.00    +0.000 C 
ATOM     14  H   UNL     1      42.997   1.954   9.956  0.00  0.00    +0.000 HD
ENDBRANCH   6   8
BRANCH   1  15
ATOM     15  C   UNL     1      47.820   8.189  12.254  0.00  0.00    +0.000 C 
BRANCH  15  16
ATOM     16  O   UNL     1      47.018   9.211  12.831  0.00  0.00    +0.000 OA
BRANCH  16  21
ATOM     17  C   UNL     1      44.206  10.308  10.842  0.00  0.00    +0.000 A 
ATOM     18  C   UNL     1      44.696  11.463  10.225  0.00  0.00    +0.000 A 
ATOM     19  C   UNL     1      45.992  11.899  10.489  0.00  0.00    +0.000 A 
ATOM     20  C   UNL     1      46.808  11.178  11.364  0.00  0.00    +0.000 A 
ATOM     21  C   UNL     1      46.330  10.013  11.967  0.00  0.00    +0.000 A 
ATOM     22  C   UNL     1      45.034   9.574  11.697  0.00  0.00    +0.000 A 
BRANCH  17  24
ATOM     23  N   UNL     1      42.462   8.611  10.916  0.00  0.00    +0.000 N 
ATOM     24  C   UNL     1      42.811   9.886  10.565  0.00  0.00    +0.000 C 
ATOM     25  O   UNL     1      41.989  10.654  10.082  0.00  0.00    +0.000 OA
ATOM     26  H   UNL     1      41.486   8.366  10.819  0.00  0.00    +0.000 HD
ATOM     27  H   UNL     1      43.035   8.036  11.517  0.00  0.00    +0.000 HD
ENDBRANCH  17  24
ENDBRANCH  16  21
ENDBRANCH  15  16
ENDBRANCH   1  15
TORSDOF 5
ENDMDL
MODEL 5
REMARK VINA RESULT:    -6.688      4.488      8.520
REMARK INTER + INTRA:          -9.424
REMARK INTER:                  -9.551
REMARK INTRA:                   0.128
REMARK UNBOUND:                -0.781
REMARK  Name = 
REMARK  5 active torsions:
REMARK  status: ('A' for Active; 'I' for Inactive)
REMARK    1  A    between atoms: C_2  and  C_4
REMARK    2  A    between atoms: C_8  and  O_9
REMARK    3  A    between atoms: O_9  and  C_10
REMARK    4  A    between atoms: C_10  and  C_11
REMARK    5  A    between atoms: C_16  and  C_17
REMARK                            x       y       z     vdW  Elec       q    Type
REMARK                         _______ _______ _______ _____ _____    ______ ____
ROOT
ATOM      1  C   UNL     1      46.759   4.667  13.310  0.00  0.00    +0.000 A 
ATOM      2  C   UNL     1      47.554   5.791  13.073  0.00  0.00    +0.000 A 
ATOM      3  C   UNL     1      47.132   6.748  12.166  0.00  0.00    +0.000 A 
ATOM      4  F   UNL     1      47.897   7.823  11.937  0.00  0.00    +0.000 F 
ATOM      5  C   UNL     1      45.946   6.592  11.453  0.00  0.00    +0.000 A 
ATOM      6  C   UNL     1      45.172   5.434  11.603  0.00  0.00    +0.000 A 
ATOM      7  C   UNL     1      45.553   4.523  12.606  0.00  0.00    +0.000 A 
ENDROOT
BRANCH   6   8
ATOM      8  C   UNL     1      44.007   5.079  10.679  0.00  0.00    +0.000 C 
ATOM      9  C   UNL     1      42.908   4.306  11.446  0.00  0.00    +0.000 C 
ATOM     10  C   UNL     1      43.383   2.897  11.813  0.00  0.00    +0.000 C 
ATOM     11  N   UNL     1      43.724   2.114  10.629  0.00  0.00    +0.000 NA
ATOM     12  C   UNL     1      44.719   2.781   9.788  0.00  0.00    +0.000 C 
ATOM     13  C   UNL     1      44.351   4.229   9.438  0.00  0.00    +0.000 C 
ATOM     14  H   UNL     1      42.879   1.950  10.082  0.00  0.00    +0.000 HD
ENDBRANCH   6   8
BRANCH   1  15
ATOM     15  C   UNL     1      47.193   3.623  14.301  0.00  0.00    +0.000 C 
BRANCH  15  16
ATOM     16  O   UNL     1      46.634   3.967  15.562  0.00  0.00    +0.000 OA
BRANCH  16  21
ATOM     17  C   UNL     1      48.023   4.928  18.759  0.00  0.00    +0.000 A 
ATOM     18  C   UNL     1      49.029   3.978  18.956  0.00  0.00    +0.000 A 
ATOM     19  C   UNL     1      49.242   2.980  18.009  0.00  0.00    +0.000 A 
ATOM     20  C   UNL     1      48.457   2.932  16.855  0.00  0.00    +0.000 A 
ATOM     21  C   UNL     1      47.465   3.890  16.643  0.00  0.00    +0.000 A 
ATOM     22  C   UNL     1      47.256   4.893  17.590  0.00  0.00    +0.000 A 
BRANCH  17  24
ATOM     23  N   UNL     1      47.004   5.620  20.858  0.00  0.00    +0.000 N 
ATOM     24  C   UNL     1      47.799   5.961  19.800  0.00  0.00    +0.000 C 
ATOM     25  O   UNL     1      48.334   7.060  19.743  0.00  0.00    +0.000 OA
ATOM     26  H   UNL     1      46.940   6.291  21.612  0.00  0.00    +0.000 HD
ATOM     27  H   UNL     1      46.738   4.665  21.054  0.00  0.00    +0.000 HD
ENDBRANCH  17  24
ENDBRANCH  16  21
ENDBRANCH  15  16
ENDBRANCH   1  15
TORSDOF 5
ENDMDL
MODEL 6
REMARK VINA RESULT:    -6.623      5.449      8.147
REMARK INTER + INTRA:          -9.340
REMARK INTER:                  -8.772
REMARK INTRA:                  -0.568
REMARK UNBOUND:                -0.781
REMARK  Name = 
REMARK  5 active torsions:
REMARK  status: ('A' for Active; 'I' for Inactive)
REMARK    1  A    between atoms: C_2  and  C_4
REMARK    2  A    between atoms: C_8  and  O_9
REMARK    3  A    between atoms: O_9  and  C_10
REMARK    4  A    between atoms: C_10  and  C_11
REMARK    5  A    between atoms: C_16  and  C_17
REMARK                            x       y       z     vdW  Elec       q    Type
REMARK                         _______ _______ _______ _____ _____    ______ ____
ROOT
ATOM      1  C   UNL     1      47.303   4.869  15.200  0.00  0.00    +0.000 A 
ATOM      2  C   UNL     1      48.170   5.905  14.844  0.00  0.00    +0.000 A 
ATOM      3  C   UNL     1      47.999   6.552  13.631  0.00  0.00    +0.000 A 
ATOM      4  F   UNL     1      48.833   7.543  13.288  0.00  0.00    +0.000 F 
ATOM      5  C   UNL     1      47.004   6.160  12.740  0.00  0.00    +0.000 A 
ATOM      6  C   UNL     1      46.178   5.068  13.029  0.00  0.00    +0.000 A 
ATOM      7  C   UNL     1      46.287   4.491  14.309  0.00  0.00    +0.000 A 
ENDROOT
BRANCH   6   8
ATOM      8  C   UNL     1      45.244   4.426  12.002  0.00  0.00    +0.000 C 
ATOM      9  C   UNL     1      44.858   5.436  10.897  0.00  0.00    +0.000 C 
ATOM     10  C   UNL     1      43.926   6.521  11.447  0.00  0.00    +0.000 C 
ATOM     11  N   UNL     1      42.689   5.956  11.975  0.00  0.00    +0.000 NA
ATOM     12  C   UNL     1      42.934   4.935  12.995  0.00  0.00    +0.000 C 
ATOM     13  C   UNL     1      43.921   3.848  12.546  0.00  0.00    +0.000 C 
ATOM     14  H   UNL     1      42.156   5.544  11.211  0.00  0.00    +0.000 HD
ENDBRANCH   6   8
BRANCH   1  15
ATOM     15  C   UNL     1      47.463   4.164  16.519  0.00  0.00    +0.000 C 
BRANCH  15  16
ATOM     16  O   UNL     1      48.390   3.103  16.331  0.00  0.00    +0.000 OA
BRANCH  16  21
ATOM     17  C   UNL     1      51.593   2.028  17.619  0.00  0.00    +0.000 A 
ATOM     18  C   UNL     1      52.119   3.205  18.159  0.00  0.00    +0.000 A 
ATOM     19  C   UNL     1      51.398   4.393  18.080  0.00  0.00    +0.000 A 
ATOM     20  C   UNL     1      50.142   4.409  17.468  0.00  0.00    +0.000 A 
ATOM     21  C   UNL     1      49.603   3.233  16.945  0.00  0.00    +0.000 A 
ATOM     22  C   UNL     1      50.325   2.042  17.031  0.00  0.00    +0.000 A 
BRANCH  17  24
ATOM     23  N   UNL     1      51.878  -0.258  18.405  0.00  0.00    +0.000 N 
ATOM     24  C   UNL     1      52.399   0.784  17.691  0.00  0.00    +0.000 C 
ATOM     25  O   UNL     1      53.467   0.674  17.102  0.00  0.00    +0.000 OA
ATOM     26  H   UNL     1      52.383  -1.133  18.363  0.00  0.00    +0.000 HD
ATOM     27  H   UNL     1      50.914  -0.284  18.705  0.00  0.00    +0.000 HD
ENDBRANCH  17  24
ENDBRANCH  16  21
ENDBRANCH  15  16
ENDBRANCH   1  15
TORSDOF 5
ENDMDL
MODEL 7
REMARK VINA RESULT:    -6.365      4.323      6.171
REMARK INTER + INTRA:          -9.007
REMARK INTER:                  -8.038
REMARK INTRA:                  -0.968
REMARK UNBOUND:                -0.781
REMARK  Name = 
REMARK  5 active torsions:
REMARK  status: ('A' for Active; 'I' for Inactive)
REMARK    1  A    between atoms: C_2  and  C_4
REMARK    2  A    between atoms: C_8  and  O_9
REMARK    3  A    between atoms: O_9  and  C_10
REMARK    4  A    between atoms: C_10  and  C_11
REMARK    5  A    between atoms: C_16  and  C_17
REMARK                            x       y       z     vdW  Elec       q    Type
REMARK                         _______ _______ _______ _____ _____    ______ ____
ROOT
ATOM      1  C   UNL     1      49.107   7.720  14.779  0.00  0.00    +0.000 A 
ATOM      2  C   UNL     1      48.571   8.942  15.192  0.00  0.00    +0.000 A 
ATOM      3  C   UNL     1      48.404   9.193  16.543  0.00  0.00    +0.000 A 
ATOM      4  F   UNL     1      47.886  10.363  16.938  0.00  0.00    +0.000 F 
ATOM      5  C   UNL     1      48.723   8.232  17.499  0.00  0.00    +0.000 A 
ATOM      6  C   UNL     1      49.178   6.965  17.112  0.00  0.00    +0.000 A 
ATOM      7  C   UNL     1      49.449   6.762  15.746  0.00  0.00    +0.000 A 
ENDROOT
BRANCH   6   8
ATOM      8  C   UNL     1      49.304   5.787  18.078  0.00  0.00    +0.000 C 
ATOM      9  C   UNL     1      49.038   4.447  17.354  0.00  0.00    +0.000 C 
ATOM     10  C   UNL     1      47.560   4.311  16.976  0.00  0.00    +0.000 C 
ATOM     11  N   UNL     1      46.694   4.353  18.149  0.00  0.00    +0.000 NA
ATOM     12  C   UNL     1      46.903   5.560  18.952  0.00  0.00    +0.000 C 
ATOM     13  C   UNL     1      48.374   5.809  19.309  0.00  0.00    +0.000 C 
ATOM     14  H   UNL     1      46.872   3.533  18.727  0.00  0.00    +0.000 HD
ENDBRANCH   6   8
BRANCH   1  15
ATOM     15  C   UNL     1      49.310   7.433  13.316  0.00  0.00    +0.000 C 
BRANCH  15  16
ATOM     16  O   UNL     1      48.654   6.208  13.022  0.00  0.00    +0.000 OA
BRANCH  16  21
ATOM     17  C   UNL     1      45.246   5.098  12.548  0.00  0.00    +0.000 A 
ATOM     18  C   UNL     1      44.656   6.182  11.891  0.00  0.00    +0.000 A 
ATOM     19  C   UNL     1      45.407   7.321  11.612  0.00  0.00    +0.000 A 
ATOM     20  C   UNL     1      46.754   7.378  11.979  0.00  0.00    +0.000 A 
ATOM     21  C   UNL     1      47.352   6.290  12.617  0.00  0.00    +0.000 A 
ATOM     22  C   UNL     1      46.600   5.147  12.891  0.00  0.00    +0.000 A 
BRANCH  17  24
ATOM     23  N   UNL     1      44.883   2.692  12.456  0.00  0.00    +0.000 N 
ATOM     24  C   UNL     1      44.412   3.911  12.860  0.00  0.00    +0.000 C 
ATOM     25  O   UNL     1      43.366   4.005  13.488  0.00  0.00    +0.000 OA
ATOM     26  H   UNL     1      44.362   1.882  12.763  0.00  0.00    +0.000 HD
ATOM     27  H   UNL     1      45.834   2.552  12.147  0.00  0.00    +0.000 HD
ENDBRANCH  17  24
ENDBRANCH  16  21
ENDBRANCH  15  16
ENDBRANCH   1  15
TORSDOF 5
ENDMDL
MODEL 8
REMARK VINA RESULT:    -6.340      3.927      5.716
REMARK INTER + INTRA:          -8.975
REMARK INTER:                  -8.330
REMARK INTRA:                  -0.645
REMARK UNBOUND:                -0.781
REMARK  Name = 
REMARK  5 active torsions:
REMARK  status: ('A' for Active; 'I' for Inactive)
REMARK    1  A    between atoms: C_2  and  C_4
REMARK    2  A    between atoms: C_8  and  O_9
REMARK    3  A    between atoms: O_9  and  C_10
REMARK    4  A    between atoms: C_10  and  C_11
REMARK    5  A    between atoms: C_16  and  C_17
REMARK                            x       y       z     vdW  Elec       q    Type
REMARK                         _______ _______ _______ _____ _____    ______ ____
ROOT
ATOM      1  C   UNL     1      48.328   3.905  16.655  0.00  0.00    +0.000 A 
ATOM      2  C   UNL     1      49.012   2.693  16.777  0.00  0.00    +0.000 A 
ATOM      3  C   UNL     1      50.252   2.668  17.393  0.00  0.00    +0.000 A 
ATOM      4  F   UNL     1      50.909   1.506  17.506  0.00  0.00    +0.000 F 
ATOM      5  C   UNL     1      50.850   3.836  17.857  0.00  0.00    +0.000 A 
ATOM      6  C   UNL     1      50.230   5.077  17.670  0.00  0.00    +0.000 A 
ATOM      7  C   UNL     1      48.923   5.078  17.144  0.00  0.00    +0.000 A 
ENDROOT
BRANCH   6   8
ATOM      8  C   UNL     1      50.931   6.413  17.919  0.00  0.00    +0.000 C 
ATOM      9  C   UNL     1      50.380   7.511  16.980  0.00  0.00    +0.000 C 
ATOM     10  C   UNL     1      50.812   7.262  15.532  0.00  0.00    +0.000 C 
ATOM     11  N   UNL     1      52.264   7.256  15.392  0.00  0.00    +0.000 NA
ATOM     12  C   UNL     1      52.904   6.288  16.285  0.00  0.00    +0.000 C 
ATOM     13  C   UNL     1      52.464   6.423  17.749  0.00  0.00    +0.000 C 
ATOM     14  H   UNL     1      52.624   8.187  15.596  0.00  0.00    +0.000 HD
ENDBRANCH   6   8
BRANCH   1  15
ATOM     15  C   UNL     1      46.974   3.951  16.002  0.00  0.00    +0.000 C 
BRANCH  15  16
ATOM     16  O   UNL     1      47.124   3.491  14.666  0.00  0.00    +0.000 OA
BRANCH  16  21
ATOM     17  C   UNL     1      45.182   4.568  11.812  0.00  0.00    +0.000 A 
ATOM     18  C   UNL     1      45.683   5.849  11.564  0.00  0.00    +0.000 A 
ATOM     19  C   UNL     1      46.682   6.378  12.377  0.00  0.00    +0.000 A 
ATOM     20  C   UNL     1      47.193   5.625  13.436  0.00  0.00    +0.000 A 
ATOM     21  C   UNL     1      46.711   4.337  13.676  0.00  0.00    +0.000 A 
ATOM     22  C   UNL     1      45.714   3.806  12.857  0.00  0.00    +0.000 A 
BRANCH  17  24
ATOM     23  N   UNL     1      43.993   4.563   9.688  0.00  0.00    +0.000 N 
ATOM     24  C   UNL     1      44.095   4.044  10.949  0.00  0.00    +0.000 C 
ATOM     25  O   UNL     1      43.344   3.155  11.327  0.00  0.00    +0.000 OA
ATOM     26  H   UNL     1      43.317   4.129   9.074  0.00  0.00    +0.000 HD
ATOM     27  H   UNL     1      44.723   5.120   9.268  0.00  0.00    +0.000 HD
ENDBRANCH  17  24
ENDBRANCH  16  21
ENDBRANCH  15  16
ENDBRANCH   1  15
TORSDOF 5
ENDMDL
MODEL 9
REMARK VINA RESULT:    -6.298      4.787      7.723
REMARK INTER + INTRA:          -8.919
REMARK INTER:                  -8.217
REMARK INTRA:                  -0.702
REMARK UNBOUND:                -0.781
REMARK  Name = 
REMARK  5 active torsions:
REMARK  status: ('A' for Active; 'I' for Inactive)
REMARK    1  A    between atoms: C_2  and  C_4
REMARK    2  A    between atoms: C_8  and  O_9
REMARK    3  A    between atoms: O_9  and  C_10
REMARK    4  A    between atoms: C_10  and  C_11
REMARK    5  A    between atoms: C_16  and  C_17
REMARK                            x       y       z     vdW  Elec       q    Type
REMARK                         _______ _______ _______ _____ _____    ______ ____
ROOT
ATOM      1  C   UNL     1      45.557   8.545  12.070  0.00  0.00    +0.000 A 
ATOM      2  C   UNL     1      46.787   8.184  12.626  0.00  0.00    +0.000 A 
ATOM      3  C   UNL     1      47.259   6.893  12.462  0.00  0.00    +0.000 A 
ATOM      4  F   UNL     1      48.436   6.547  12.999  0.00  0.00    +0.000 F 
ATOM      5  C   UNL     1      46.511   5.933  11.786  0.00  0.00    +0.000 A 
ATOM      6  C   UNL     1      45.235   6.239  11.295  0.00  0.00    +0.000 A 
ATOM      7  C   UNL     1      44.815   7.581  11.370  0.00  0.00    +0.000 A 
ENDROOT
BRANCH   6   8
ATOM      8  C   UNL     1      44.260   5.183  10.774  0.00  0.00    +0.000 C 
ATOM      9  C   UNL     1      42.923   5.234  11.550  0.00  0.00    +0.000 C 
ATOM     10  C   UNL     1      43.102   4.732  12.986  0.00  0.00    +0.000 C 
ATOM     11  N   UNL     1      43.576   3.352  13.022  0.00  0.00    +0.000 NA
ATOM     12  C   UNL     1      44.815   3.170  12.264  0.00  0.00    +0.000 C 
ATOM     13  C   UNL     1      44.741   3.718  10.832  0.00  0.00    +0.000 C 
ATOM     14  H   UNL     1      42.857   2.740  12.639  0.00  0.00    +0.000 HD
ENDBRANCH   6   8
BRANCH   1  15
ATOM     15  C   UNL     1      45.034   9.946  12.225  0.00  0.00    +0.000 C 
BRANCH  15  16
ATOM     16  O   UNL     1      45.111  10.578  10.954  0.00  0.00    +0.000 OA
BRANCH  16  21
ATOM     17  C   UNL     1      41.530  11.006  10.704  0.00  0.00    +0.000 A 
ATOM     18  C   UNL     1      41.376  11.588   9.442  0.00  0.00    +0.000 A 
ATOM     19  C   UNL     1      42.494  11.862   8.659  0.00  0.00    +0.000 A 
ATOM     20  C   UNL     1      43.771  11.547   9.128  0.00  0.00    +0.000 A 
ATOM     21  C   UNL     1      43.928  10.946  10.378  0.00  0.00    +0.000 A 
ATOM     22  C   UNL     1      42.807  10.666  11.160  0.00  0.00    +0.000 A 
BRANCH  17  24
ATOM     23  N   UNL     1      39.494   9.742  11.132  0.00  0.00    +0.000 N 
ATOM     24  C   UNL     1      40.322  10.754  11.529  0.00  0.00    +0.000 C 
ATOM     25  O   UNL     1      40.093  11.394  12.547  0.00  0.00    +0.000 OA
ATOM     26  H   UNL     1      38.731   9.511  11.755  0.00  0.00    +0.000 HD
ATOM     27  H   UNL     1      39.765   9.054  10.444  0.00  0.00    +0.000 HD
ENDBRANCH  17  24
ENDBRANCH  16  21
ENDBRANCH  15  16
ENDBRANCH   1  15
TORSDOF 5
ENDMDL
