MODEL 1
REMARK VINA RESULT:    -8.398      0.000      0.000
REMARK INTER + INTRA:         -11.697
REMARK INTER:                 -10.853
REMARK INTRA:                  -0.844
REMARK UNBOUND:                -0.844
REMARK  Name = 
REMARK  6 active torsions:
REMARK  status: ('A' for Active; 'I' for Inactive)
REMARK    1  A    between atoms: C_1  and  C_2
REMARK    2  A    between atoms: C_2  and  N_3
REMARK    3  A    between atoms: C_2  and  C_16
REMARK    4  A    between atoms: C_4  and  C_6
REMARK    5  A    between atoms: C_19  and  O_20
REMARK    6  A    between atoms: O_20  and  C_21
REMARK                            x       y       z     vdW  Elec       q    Type
REMARK                         _______ _______ _______ _____ _____    ______ ____
ROOT
ATOM      1  C   UNL     1      45.346   8.727  12.902  0.00  0.00    +0.000 C 
ATOM      2  C   UNL     1      46.485   7.712  12.735  0.00  0.00    +0.000 C 
ENDROOT
BRANCH   2   3
ATOM      3  C   UNL     1      46.013   6.558  11.863  0.00  0.00    +0.000 A 
ATOM      4  C   UNL     1      46.427   6.479  10.527  0.00  0.00    +0.000 A 
ATOM      5  C   UNL     1      45.940   5.471   9.691  0.00  0.00    +0.000 A 
ATOM      6  C   UNL     1      45.070   4.498  10.188  0.00  0.00    +0.000 A 
ATOM      7  C   UNL     1      44.656   4.562  11.517  0.00  0.00    +0.000 A 
ATOM      8  C   UNL     1      45.131   5.579  12.351  0.00  0.00    +0.000 A 
BRANCH   6   9
ATOM      9  O   UNL     1      44.511   3.499   9.420  0.00  0.00    +0.000 OA
BRANCH   9  10
ATOM     10  C   UNL     1      45.321   2.819   8.524  0.00  0.00    +0.000 A 
ATOM     11  C   UNL     1      45.653   3.485   7.350  0.00  0.00    +0.000 A 
ATOM     12  C   UNL     1      46.480   2.838   6.438  0.00  0.00    +0.000 A 
ATOM     13  C   UNL     1      46.943   1.558   6.723  0.00  0.00    +0.000 A 
ATOM     14  C   UNL     1      46.537   0.964   7.906  0.00  0.00    +0.000 A 
ATOM     15  N   UNL     1      45.724   1.556   8.799  0.00  0.00    +0.000 NA
ENDBRANCH   9  10
ENDBRANCH   6   9
ENDBRANCH   2   3
BRANCH   2  16
ATOM     16  N   UNL     1      46.981   7.211  14.005  0.00  0.00    +0.000 N 
ATOM     17  C   UNL     1      48.275   6.775  14.161  0.00  0.00    +0.000 C 
ATOM     18  O   UNL     1      49.109   6.834  13.262  0.00  0.00    +0.000 OA
ATOM     19  H   UNL     1      46.280   6.839  14.641  0.00  0.00    +0.000 HD
BRANCH  17  20
ATOM     20  C   UNL     1      48.645   6.290  15.493  0.00  0.00    +0.000 A 
ATOM     21  C   UNL     1      49.615   6.965  16.223  0.00  0.00    +0.000 A 
ATOM     22  S   UNL     1      49.926   6.269  17.748  0.00  0.00    +0.000 S 
ATOM     23  C   UNL     1      48.806   5.019  17.466  0.00  0.00    +0.000 A 
ATOM     24  N   UNL     1      48.614   4.032  18.381  0.00  0.00    +0.000 NA
ATOM     25  C   UNL     1      47.761   3.131  18.020  0.00  0.00    +0.000 A 
ATOM     26  N   UNL     1      47.072   3.138  16.834  0.00  0.00    +0.000 N 
ATOM     27  C   UNL     1      47.208   4.134  15.896  0.00  0.00    +0.000 A 
ATOM     28  O   UNL     1      46.536   4.148  14.870  0.00  0.00    +0.000 OA
ATOM     29  C   UNL     1      48.180   5.151  16.240  0.00  0.00    +0.000 A 
ATOM     30  H   UNL     1      46.402   2.413  16.621  0.00  0.00    +0.000 HD
ENDBRANCH  17  20
ENDBRANCH   2  16
TORSDOF 5
ENDMDL
MODEL 2
REMARK VINA RESULT:    -7.881      1.740      2.408
REMARK INTER + INTRA:         -11.028
REMARK INTER:                 -10.307
REMARK INTRA:                  -0.721
REMARK UNBOUND:                -0.844
REMARK  Name = 
REMARK  6 active torsions:
REMARK  status: ('A' for Active; 'I' for Inactive)
REMARK    1  A    between atoms: C_1  and  C_2
REMARK    2  A    between atoms: C_2  and  N_3
REMARK    3  A    between atoms: C_2  and  C_16
REMARK    4  A    between atoms: C_4  and  C_6
REMARK    5  A    between atoms: C_19  and  O_20
REMARK    6  A    between atoms: O_20  and  C_21
REMARK                            x       y       z     vdW  Elec       q    Type
REMARK                         _______ _______ _______ _____ _____    ______ ____
ROOT
ATOM      1  C   UNL     1      46.504   8.190  13.319  0.00  0.00    +0.000 C 
ATOM      2  C   UNL     1      47.186   6.816  13.266  0.00  0.00    +0.000 C 
ENDROOT
BRANCH   2   3
ATOM      3  C   UNL     1      46.439   5.916  12.294  0.00  0.00    +0.000 A 
ATOM      4  C   UNL     1      45.994   4.654  12.711  0.00  0.00    +0.000 A 
ATOM      5  C   UNL     1      45.377   3.784  11.810  0.00  0.00    +0.000 A 
ATOM      6  C   UNL     1      45.149   4.178  10.489  0.00  0.00    +0.000 A 
ATOM      7  C   UNL     1      45.580   5.434  10.063  0.00  0.00    +0.000 A 
ATOM      8  C   UNL     1      46.212   6.300  10.961  0.00  0.00    +0.000 A 
BRANCH   6   9
ATOM      9  O   UNL     1      44.588   3.365   9.528  0.00  0.00    +0.000 OA
BRANCH   9  10
ATOM     10  C   UNL     1      45.420   2.788   8.580  0.00  0.00    +0.000 A 
ATOM     11  C   UNL     1      45.750   3.568   7.478  0.00  0.00    +0.000 A 
ATOM     12  C   UNL     1      46.598   3.026   6.519  0.00  0.00    +0.000 A 
ATOM     13  C   UNL     1      47.083   1.732   6.687  0.00  0.00    +0.000 A 
ATOM     14  C   UNL     1      46.679   1.022   7.804  0.00  0.00    +0.000 A 
ATOM     15  N   UNL     1      45.845   1.513   8.740  0.00  0.00    +0.000 NA
ENDBRANCH   9  10
ENDBRANCH   6   9
ENDBRANCH   2   3
BRANCH   2  16
ATOM     16  N   UNL     1      47.276   6.182  14.570  0.00  0.00    +0.000 N 
ATOM     17  C   UNL     1      48.461   6.099  15.260  0.00  0.00    +0.000 C 
ATOM     18  O   UNL     1      49.504   6.602  14.853  0.00  0.00    +0.000 OA
ATOM     19  H   UNL     1      46.561   5.489  14.778  0.00  0.00    +0.000 HD
BRANCH  17  20
ATOM     20  C   UNL     1      48.414   5.430  16.563  0.00  0.00    +0.000 A 
ATOM     21  C   UNL     1      48.287   4.049  16.620  0.00  0.00    +0.000 A 
ATOM     22  S   UNL     1      48.246   3.434  18.210  0.00  0.00    +0.000 S 
ATOM     23  C   UNL     1      48.352   4.997  18.875  0.00  0.00    +0.000 A 
ATOM     24  N   UNL     1      48.322   5.190  20.220  0.00  0.00    +0.000 NA
ATOM     25  C   UNL     1      48.377   6.429  20.582  0.00  0.00    +0.000 A 
ATOM     26  N   UNL     1      48.474   7.491  19.719  0.00  0.00    +0.000 N 
ATOM     27  C   UNL     1      48.544   7.342  18.354  0.00  0.00    +0.000 A 
ATOM     28  O   UNL     1      48.691   8.304  17.608  0.00  0.00    +0.000 OA
ATOM     29  C   UNL     1      48.453   5.970  17.897  0.00  0.00    +0.000 A 
ATOM     30  H   UNL     1      48.533   8.437  20.068  0.00  0.00    +0.000 HD
ENDBRANCH  17  20
ENDBRANCH   2  16
TORSDOF 5
ENDMDL
MODEL 3
REMARK VINA RESULT:    -7.844      2.687      4.155
REMARK INTER + INTRA:         -10.980
REMARK INTER:                 -10.050
REMARK INTRA:                  -0.930
REMARK UNBOUND:                -0.844
REMARK  Name = 
REMARK  6 active torsions:
REMARK  status: ('A' for Active; 'I' for Inactive)
REMARK    1  A    between atoms: C_1  and  C_2
REMARK    2  A    between atoms: C_2  and  N_3
REMARK    3  A    between atoms: C_2  and  C_16
REMARK    4  A    between atoms: C_4  and  C_6
REMARK    5  A    between atoms: C_19  and  O_20
REMARK    6  A    between atoms: O_20  and  C_21
REMARK                            x       y       z     vdW  Elec       q    Type
REMARK                         _______ _______ _______ _____ _____    ______ ____
ROOT
ATOM      1  C   UNL     1      46.651   4.687  14.631  0.00  0.00    +0.000 C 
ATOM      2  C   UNL     1      46.286   5.751  13.587  0.00  0.00    +0.000 C 
ENDROOT
BRANCH   2   3
ATOM      3  C   UNL     1      45.749   5.070  12.336  0.00  0.00    +0.000 A 
ATOM      4  C   UNL     1      45.182   3.792  12.426  0.00  0.00    +0.000 A 
ATOM      5  C   UNL     1      44.757   3.121  11.277  0.00  0.00    +0.000 A 
ATOM      6  C   UNL     1      44.846   3.734  10.026  0.00  0.00    +0.000 A 
ATOM      7  C   UNL     1      45.402   5.009   9.923  0.00  0.00    +0.000 A 
ATOM      8  C   UNL     1      45.841   5.676  11.072  0.00  0.00    +0.000 A 
BRANCH   6   9
ATOM      9  O   UNL     1      44.492   3.125   8.841  0.00  0.00    +0.000 OA
BRANCH   9  10
ATOM     10  C   UNL     1      45.490   2.563   8.060  0.00  0.00    +0.000 A 
ATOM     11  C   UNL     1      45.891   3.285   6.942  0.00  0.00    +0.000 A 
ATOM     12  C   UNL     1      46.904   2.758   6.148  0.00  0.00    +0.000 A 
ATOM     13  C   UNL     1      47.477   1.538   6.490  0.00  0.00    +0.000 A 
ATOM     14  C   UNL     1      46.994   0.879   7.607  0.00  0.00    +0.000 A 
ATOM     15  N   UNL     1      46.004   1.353   8.384  0.00  0.00    +0.000 NA
ENDBRANCH   9  10
ENDBRANCH   6   9
ENDBRANCH   2   3
BRANCH   2  16
ATOM     16  N   UNL     1      47.404   6.613  13.248  0.00  0.00    +0.000 N 
ATOM     17  C   UNL     1      47.259   7.973  13.105  0.00  0.00    +0.000 C 
ATOM     18  O   UNL     1      46.196   8.553  13.311  0.00  0.00    +0.000 OA
ATOM     19  H   UNL     1      48.176   6.169  12.757  0.00  0.00    +0.000 HD
BRANCH  17  20
ATOM     20  C   UNL     1      48.466   8.726  12.758  0.00  0.00    +0.000 A 
ATOM     21  C   UNL     1      48.392   9.743  11.815  0.00  0.00    +0.000 A 
ATOM     22  S   UNL     1      49.885  10.515  11.528  0.00  0.00    +0.000 S 
ATOM     23  C   UNL     1      50.688   9.488  12.622  0.00  0.00    +0.000 A 
ATOM     24  N   UNL     1      52.029   9.588  12.821  0.00  0.00    +0.000 NA
ATOM     25  C   UNL     1      52.509   8.723  13.652  0.00  0.00    +0.000 A 
ATOM     26  N   UNL     1      51.766   7.778  14.314  0.00  0.00    +0.000 N 
ATOM     27  C   UNL     1      50.404   7.666  14.172  0.00  0.00    +0.000 A 
ATOM     28  O   UNL     1      49.754   6.852  14.820  0.00  0.00    +0.000 OA
ATOM     29  C   UNL     1      49.822   8.593  13.223  0.00  0.00    +0.000 A 
ATOM     30  H   UNL     1      52.201   7.144  14.968  0.00  0.00    +0.000 HD
ENDBRANCH  17  20
ENDBRANCH   2  16
TORSDOF 5
ENDMDL
MODEL 4
REMARK VINA RESULT:    -7.461      2.387      3.161
REMARK INTER + INTRA:         -10.486
REMARK INTER:                  -9.320
REMARK INTRA:                  -1.166
REMARK UNBOUND:                -0.844
REMARK  Name = 
REMARK  6 active torsions:
REMARK  status: ('A' for Active; 'I' for Inactive)
REMARK    1  A    between atoms: C_1  and  C_2
REMARK    2  A    between atoms: C_2  and  N_3
REMARK    3  A    between atoms: C_2  and  C_16
REMARK    4  A    between atoms: C_4  and  C_6
REMARK    5  A    between atoms: C_19  and  O_20
REMARK    6  A    between atoms: O_20  and  C_21
REMARK                            x       y       z     vdW  Elec       q    Type
REMARK                         _______ _______ _______ _____ _____    ______ ____
ROOT
ATOM      1  C   UNL     1      48.081   9.008  13.962  0.00  0.00    +0.000 C 
ATOM      2  C   UNL     1      48.228   7.484  14.072  0.00  0.00    +0.000 C 
ENDROOT
BRANCH   2   3
ATOM      3  C   UNL     1      47.194   6.808  13.184  0.00  0.00    +0.000 A 
ATOM      4  C   UNL     1      46.888   5.455  13.374  0.00  0.00    +0.000 A 
ATOM      5  C   UNL     1      46.000   4.800  12.517  0.00  0.00    +0.000 A 
ATOM      6  C   UNL     1      45.367   5.498  11.486  0.00  0.00    +0.000 A 
ATOM      7  C   UNL     1      45.658   6.847  11.291  0.00  0.00    +0.000 A 
ATOM      8  C   UNL     1      46.558   7.500  12.139  0.00  0.00    +0.000 A 
BRANCH   6   9
ATOM      9  O   UNL     1      44.515   4.917  10.572  0.00  0.00    +0.000 OA
BRANCH   9  10
ATOM     10  C   UNL     1      45.054   4.105   9.586  0.00  0.00    +0.000 A 
ATOM     11  C   UNL     1      44.921   2.733   9.763  0.00  0.00    +0.000 A 
ATOM     12  C   UNL     1      45.433   1.890   8.783  0.00  0.00    +0.000 A 
ATOM     13  C   UNL     1      46.059   2.439   7.668  0.00  0.00    +0.000 A 
ATOM     14  C   UNL     1      46.167   3.817   7.591  0.00  0.00    +0.000 A 
ATOM     15  N   UNL     1      45.698   4.657   8.531  0.00  0.00    +0.000 NA
ENDBRANCH   9  10
ENDBRANCH   6   9
ENDBRANCH   2   3
BRANCH   2  16
ATOM     16  N   UNL     1      48.107   7.004  15.438  0.00  0.00    +0.000 N 
ATOM     17  C   UNL     1      49.187   6.531  16.143  0.00  0.00    +0.000 C 
ATOM     18  O   UNL     1      50.329   6.536  15.692  0.00  0.00    +0.000 OA
ATOM     19  H   UNL     1      47.185   6.676  15.713  0.00  0.00    +0.000 HD
BRANCH  17  20
ATOM     20  C   UNL     1      48.926   6.074  17.510  0.00  0.00    +0.000 A 
ATOM     21  C   UNL     1      49.199   4.758  17.857  0.00  0.00    +0.000 A 
ATOM     22  S   UNL     1      48.836   4.392  19.483  0.00  0.00    +0.000 S 
ATOM     23  C   UNL     1      48.263   5.970  19.765  0.00  0.00    +0.000 A 
ATOM     24  N   UNL     1      47.751   6.323  20.974  0.00  0.00    +0.000 NA
ATOM     25  C   UNL     1      47.323   7.540  21.036  0.00  0.00    +0.000 A 
ATOM     26  N   UNL     1      47.373   8.440  20.001  0.00  0.00    +0.000 N 
ATOM     27  C   UNL     1      47.914   8.137  18.774  0.00  0.00    +0.000 A 
ATOM     28  O   UNL     1      48.002   8.978  17.885  0.00  0.00    +0.000 OA
ATOM     29  C   UNL     1      48.379   6.772  18.645  0.00  0.00    +0.000 A 
ATOM     30  H   UNL     1      47.038   9.384  20.121  0.00  0.00    +0.000 HD
ENDBRANCH  17  20
ENDBRANCH   2  16
TORSDOF 5
ENDMDL
MODEL 5
REMARK VINA RESULT:    -7.432      2.242      3.042
REMARK INTER + INTRA:         -10.448
REMARK INTER:                  -9.710
REMARK INTRA:                  -0.738
REMARK UNBOUND:                -0.844
REMARK  Name = 
REMARK  6 active torsions:
REMARK  status: ('A' for Active; 'I' for Inactive)
REMARK    1  A    between atoms: C_1  and  C_2
REMARK    2  A    between atoms: C_2  and  N_3
REMARK    3  A    between atoms: C_2  and  C_16
REMARK    4  A    between atoms: C_4  and  C_6
REMARK    5  A    between atoms: C_19  and  O_20
REMARK    6  A    between atoms: O_20  and  C_21
REMARK                            x       y       z     vdW  Elec       q    Type
REMARK                         _______ _______ _______ _____ _____    ______ ____
ROOT
ATOM      1  C   UNL     1      49.475   8.150  13.474  0.00  0.00    +0.000 C 
ATOM      2  C   UNL     1      48.898   6.869  14.092  0.00  0.00    +0.000 C 
ENDROOT
BRANCH   2   3
ATOM      3  C   UNL     1      47.730   6.379  13.247  0.00  0.00    +0.000 A 
ATOM      4  C   UNL     1      47.001   5.253  13.650  0.00  0.00    +0.000 A 
ATOM      5  C   UNL     1      45.978   4.744  12.847  0.00  0.00    +0.000 A 
ATOM      6  C   UNL     1      45.634   5.380  11.652  0.00  0.00    +0.000 A 
ATOM      7  C   UNL     1      46.347   6.506  11.243  0.00  0.00    +0.000 A 
ATOM      8  C   UNL     1      47.381   7.008  12.040  0.00  0.00    +0.000 A 
BRANCH   6   9
ATOM      9  O   UNL     1      44.670   4.918  10.782  0.00  0.00    +0.000 OA
BRANCH   9  10
ATOM     10  C   UNL     1      45.059   4.095   9.737  0.00  0.00    +0.000 A 
ATOM     11  C   UNL     1      44.892   2.728   9.920  0.00  0.00    +0.000 A 
ATOM     12  C   UNL     1      45.255   1.876   8.882  0.00  0.00    +0.000 A 
ATOM     13  C   UNL     1      45.772   2.411   7.707  0.00  0.00    +0.000 A 
ATOM     14  C   UNL     1      45.927   3.784   7.626  0.00  0.00    +0.000 A 
ATOM     15  N   UNL     1      45.602   4.632   8.619  0.00  0.00    +0.000 NA
ENDBRANCH   9  10
ENDBRANCH   6   9
ENDBRANCH   2   3
BRANCH   2  16
ATOM     16  N   UNL     1      48.479   7.048  15.471  0.00  0.00    +0.000 N 
ATOM     17  C   UNL     1      49.251   6.629  16.528  0.00  0.00    +0.000 C 
ATOM     18  O   UNL     1      50.364   6.132  16.381  0.00  0.00    +0.000 OA
ATOM     19  H   UNL     1      47.477   7.132  15.624  0.00  0.00    +0.000 HD
BRANCH  17  20
ATOM     20  C   UNL     1      48.710   6.868  17.868  0.00  0.00    +0.000 A 
ATOM     21  C   UNL     1      48.262   8.136  18.210  0.00  0.00    +0.000 A 
ATOM     22  S   UNL     1      47.666   8.241  19.804  0.00  0.00    +0.000 S 
ATOM     23  C   UNL     1      48.027   6.605  20.104  0.00  0.00    +0.000 A 
ATOM     24  N   UNL     1      47.800   6.050  21.324  0.00  0.00    +0.000 NA
ATOM     25  C   UNL     1      48.153   4.811  21.418  0.00  0.00    +0.000 A 
ATOM     26  N   UNL     1      48.698   4.073  20.398  0.00  0.00    +0.000 N 
ATOM     27  C   UNL     1      48.911   4.582  19.139  0.00  0.00    +0.000 A 
ATOM     28  O   UNL     1      49.344   3.885  18.227  0.00  0.00    +0.000 OA
ATOM     29  C   UNL     1      48.562   5.980  18.992  0.00  0.00    +0.000 A 
ATOM     30  H   UNL     1      48.934   3.100  20.532  0.00  0.00    +0.000 HD
ENDBRANCH  17  20
ENDBRANCH   2  16
TORSDOF 5
ENDMDL
MODEL 6
REMARK VINA RESULT:    -7.405      3.252      7.839
REMARK INTER + INTRA:         -10.413
REMARK INTER:                  -9.327
REMARK INTRA:                  -1.086
REMARK UNBOUND:                -0.844
REMARK  Name = 
REMARK  6 active torsions:
REMARK  status: ('A' for Active; 'I' for Inactive)
REMARK    1  A    between atoms: C_1  and  C_2
REMARK    2  A    between atoms: C_2  and  N_3
REMARK    3  A    between atoms: C_2  and  C_16
REMARK    4  A    between atoms: C_4  and  C_6
REMARK    5  A    between atoms: C_19  and  O_20
REMARK    6  A    between atoms: O_20  and  C_21
REMARK                            x       y       z     vdW  Elec       q    Type
REMARK                         _______ _______ _______ _____ _____    ______ ____
ROOT
ATOM      1  C   UNL     1      49.607   7.803  12.478  0.00  0.00    +0.000 C 
ATOM      2  C   UNL     1      48.340   7.315  13.194  0.00  0.00    +0.000 C 
ENDROOT
BRANCH   2   3
ATOM      3  C   UNL     1      48.718   6.715  14.540  0.00  0.00    +0.000 A 
ATOM      4  C   UNL     1      49.917   7.091  15.161  0.00  0.00    +0.000 A 
ATOM      5  C   UNL     1      50.316   6.491  16.357  0.00  0.00    +0.000 A 
ATOM      6  C   UNL     1      49.502   5.541  16.978  0.00  0.00    +0.000 A 
ATOM      7  C   UNL     1      48.304   5.163  16.374  0.00  0.00    +0.000 A 
ATOM      8  C   UNL     1      47.910   5.753  15.169  0.00  0.00    +0.000 A 
BRANCH   6   9
ATOM      9  O   UNL     1      49.843   4.870  18.134  0.00  0.00    +0.000 OA
BRANCH   9  10
ATOM     10  C   UNL     1      50.763   3.836  18.053  0.00  0.00    +0.000 A 
ATOM     11  C   UNL     1      50.336   2.664  17.439  0.00  0.00    +0.000 A 
ATOM     12  C   UNL     1      51.240   1.614  17.325  0.00  0.00    +0.000 A 
ATOM     13  C   UNL     1      52.530   1.765  17.825  0.00  0.00    +0.000 A 
ATOM     14  C   UNL     1      52.857   2.960  18.443  0.00  0.00    +0.000 A 
ATOM     15  N   UNL     1      51.999   3.986  18.585  0.00  0.00    +0.000 NA
ENDBRANCH   9  10
ENDBRANCH   6   9
ENDBRANCH   2   3
BRANCH   2  16
ATOM     16  N   UNL     1      47.585   6.354  12.410  0.00  0.00    +0.000 N 
ATOM     17  C   UNL     1      46.424   6.696  11.759  0.00  0.00    +0.000 C 
ATOM     18  O   UNL     1      45.981   7.841  11.748  0.00  0.00    +0.000 OA
ATOM     19  H   UNL     1      47.714   5.377  12.660  0.00  0.00    +0.000 HD
BRANCH  17  20
ATOM     20  C   UNL     1      45.759   5.631  11.006  0.00  0.00    +0.000 A 
ATOM     21  C   UNL     1      45.821   5.629   9.619  0.00  0.00    +0.000 A 
ATOM     22  S   UNL     1      44.994   4.323   8.901  0.00  0.00    +0.000 S 
ATOM     23  C   UNL     1      44.489   3.739  10.418  0.00  0.00    +0.000 A 
ATOM     24  N   UNL     1      43.691   2.643  10.516  0.00  0.00    +0.000 NA
ATOM     25  C   UNL     1      43.358   2.334  11.725  0.00  0.00    +0.000 A 
ATOM     26  N   UNL     1      43.763   3.014  12.846  0.00  0.00    +0.000 N 
ATOM     27  C   UNL     1      44.599   4.105  12.796  0.00  0.00    +0.000 A 
ATOM     28  O   UNL     1      44.995   4.659  13.816  0.00  0.00    +0.000 OA
ATOM     29  C   UNL     1      44.974   4.511  11.458  0.00  0.00    +0.000 A 
ATOM     30  H   UNL     1      43.483   2.708  13.766  0.00  0.00    +0.000 HD
ENDBRANCH  17  20
ENDBRANCH   2  16
TORSDOF 5
ENDMDL
MODEL 7
REMARK VINA RESULT:    -6.699      3.150      8.931
REMARK INTER + INTRA:          -9.501
REMARK INTER:                  -8.548
REMARK INTRA:                  -0.953
REMARK UNBOUND:                -0.844
REMARK  Name = 
REMARK  6 active torsions:
REMARK  status: ('A' for Active; 'I' for Inactive)
REMARK    1  A    between atoms: C_1  and  C_2
REMARK    2  A    between atoms: C_2  and  N_3
REMARK    3  A    between atoms: C_2  and  C_16
REMARK    4  A    between atoms: C_4  and  C_6
REMARK    5  A    between atoms: C_19  and  O_20
REMARK    6  A    between atoms: O_20  and  C_21
REMARK                            x       y       z     vdW  Elec       q    Type
REMARK                         _______ _______ _______ _____ _____    ______ ____
ROOT
ATOM      1  C   UNL     1      48.593   8.090  11.715  0.00  0.00    +0.000 C 
ATOM      2  C   UNL     1      47.454   7.808  12.705  0.00  0.00    +0.000 C 
ENDROOT
BRANCH   2   3
ATOM      3  C   UNL     1      48.011   7.766  14.120  0.00  0.00    +0.000 A 
ATOM      4  C   UNL     1      48.097   8.946  14.871  0.00  0.00    +0.000 A 
ATOM      5  C   UNL     1      48.678   8.938  16.141  0.00  0.00    +0.000 A 
ATOM      6  C   UNL     1      49.138   7.745  16.702  0.00  0.00    +0.000 A 
ATOM      7  C   UNL     1      49.051   6.563  15.968  0.00  0.00    +0.000 A 
ATOM      8  C   UNL     1      48.483   6.572  14.690  0.00  0.00    +0.000 A 
BRANCH   6   9
ATOM      9  O   UNL     1      49.763   7.658  17.928  0.00  0.00    +0.000 OA
BRANCH   9  10
ATOM     10  C   UNL     1      48.986   7.729  19.074  0.00  0.00    +0.000 A 
ATOM     11  C   UNL     1      48.311   6.573  19.445  0.00  0.00    +0.000 A 
ATOM     12  C   UNL     1      47.538   6.604  20.601  0.00  0.00    +0.000 A 
ATOM     13  C   UNL     1      47.464   7.780  21.342  0.00  0.00    +0.000 A 
ATOM     14  C   UNL     1      48.151   8.889  20.880  0.00  0.00    +0.000 A 
ATOM     15  N   UNL     1      48.891   8.895  19.756  0.00  0.00    +0.000 NA
ENDBRANCH   9  10
ENDBRANCH   6   9
ENDBRANCH   2   3
BRANCH   2  16
ATOM     16  N   UNL     1      46.743   6.577  12.408  0.00  0.00    +0.000 N 
ATOM     17  C   UNL     1      45.496   6.577  11.831  0.00  0.00    +0.000 C 
ATOM     18  O   UNL     1      44.928   7.605  11.475  0.00  0.00    +0.000 OA
ATOM     19  H   UNL     1      47.003   5.768  12.966  0.00  0.00    +0.000 HD
BRANCH  17  20
ATOM     20  C   UNL     1      44.888   5.266  11.589  0.00  0.00    +0.000 A 
ATOM     21  C   UNL     1      44.166   4.648  12.600  0.00  0.00    +0.000 A 
ATOM     22  S   UNL     1      43.529   3.131  12.154  0.00  0.00    +0.000 S 
ATOM     23  C   UNL     1      44.234   3.230  10.607  0.00  0.00    +0.000 A 
ATOM     24  N   UNL     1      44.109   2.213   9.714  0.00  0.00    +0.000 NA
ATOM     25  C   UNL     1      44.722   2.410   8.595  0.00  0.00    +0.000 A 
ATOM     26  N   UNL     1      45.437   3.539   8.283  0.00  0.00    +0.000 N 
ATOM     27  C   UNL     1      45.559   4.606   9.140  0.00  0.00    +0.000 A 
ATOM     28  O   UNL     1      46.153   5.629   8.815  0.00  0.00    +0.000 OA
ATOM     29  C   UNL     1      44.915   4.420  10.424  0.00  0.00    +0.000 A 
ATOM     30  H   UNL     1      45.877   3.639   7.380  0.00  0.00    +0.000 HD
ENDBRANCH  17  20
ENDBRANCH   2  16
TORSDOF 5
ENDMDL
MODEL 8
REMARK VINA RESULT:    -6.613      3.056      8.349
REMARK INTER + INTRA:          -9.390
REMARK INTER:                  -8.621
REMARK INTRA:                  -0.769
REMARK UNBOUND:                -0.844
REMARK  Name = 
REMARK  6 active torsions:
REMARK  status: ('A' for Active; 'I' for Inactive)
REMARK    1  A    between atoms: C_1  and  C_2
REMARK    2  A    between atoms: C_2  and  N_3
REMARK    3  A    between atoms: C_2  and  C_16
REMARK    4  A    between atoms: C_4  and  C_6
REMARK    5  A    between atoms: C_19  and  O_20
REMARK    6  A    between atoms: O_20  and  C_21
REMARK                            x       y       z     vdW  Elec       q    Type
REMARK                         _______ _______ _______ _____ _____    ______ ____
ROOT
ATOM      1  C   UNL     1      48.750   7.835  11.711  0.00  0.00    +0.000 C 
ATOM      2  C   UNL     1      47.838   7.349  12.846  0.00  0.00    +0.000 C 
ENDROOT
BRANCH   2   3
ATOM      3  C   UNL     1      48.683   7.002  14.063  0.00  0.00    +0.000 A 
ATOM      4  C   UNL     1      48.160   6.171  15.062  0.00  0.00    +0.000 A 
ATOM      5  C   UNL     1      48.891   5.908  16.222  0.00  0.00    +0.000 A 
ATOM      6  C   UNL     1      50.177   6.430  16.382  0.00  0.00    +0.000 A 
ATOM      7  C   UNL     1      50.711   7.254  15.392  0.00  0.00    +0.000 A 
ATOM      8  C   UNL     1      49.973   7.530  14.236  0.00  0.00    +0.000 A 
BRANCH   6   9
ATOM      9  O   UNL     1      50.945   6.256  17.513  0.00  0.00    +0.000 OA
BRANCH   9  10
ATOM     10  C   UNL     1      51.654   5.073  17.657  0.00  0.00    +0.000 A 
ATOM     11  C   UNL     1      53.016   5.186  17.908  0.00  0.00    +0.000 A 
ATOM     12  C   UNL     1      53.753   4.018  18.077  0.00  0.00    +0.000 A 
ATOM     13  C   UNL     1      53.112   2.786  17.987  0.00  0.00    +0.000 A 
ATOM     14  C   UNL     1      51.756   2.773  17.708  0.00  0.00    +0.000 A 
ATOM     15  N   UNL     1      51.021   3.884  17.521  0.00  0.00    +0.000 NA
ENDBRANCH   9  10
ENDBRANCH   6   9
ENDBRANCH   2   3
BRANCH   2  16
ATOM     16  N   UNL     1      47.020   6.211  12.462  0.00  0.00    +0.000 N 
ATOM     17  C   UNL     1      45.763   6.363  11.929  0.00  0.00    +0.000 C 
ATOM     18  O   UNL     1      45.272   7.463  11.688  0.00  0.00    +0.000 OA
ATOM     19  H   UNL     1      47.228   5.334  12.935  0.00  0.00    +0.000 HD
BRANCH  17  20
ATOM     20  C   UNL     1      45.044   5.134  11.589  0.00  0.00    +0.000 A 
ATOM     21  C   UNL     1      44.283   4.493  12.558  0.00  0.00    +0.000 A 
ATOM     22  S   UNL     1      43.515   3.079  11.997  0.00  0.00    +0.000 S 
ATOM     23  C   UNL     1      44.207   3.251  10.452  0.00  0.00    +0.000 A 
ATOM     24  N   UNL     1      43.987   2.328   9.478  0.00  0.00    +0.000 NA
ATOM     25  C   UNL     1      44.602   2.568   8.368  0.00  0.00    +0.000 A 
ATOM     26  N   UNL     1      45.406   3.656   8.139  0.00  0.00    +0.000 N 
ATOM     27  C   UNL     1      45.628   4.632   9.082  0.00  0.00    +0.000 A 
ATOM     28  O   UNL     1      46.303   5.626   8.832  0.00  0.00    +0.000 OA
ATOM     29  C   UNL     1      44.985   4.391  10.357  0.00  0.00    +0.000 A 
ATOM     30  H   UNL     1      45.843   3.796   7.240  0.00  0.00    +0.000 HD
ENDBRANCH  17  20
ENDBRANCH   2  16
TORSDOF 5
ENDMDL
MODEL 9
REMARK VINA RESULT:    -6.431      3.486      7.874
REMARK INTER + INTRA:          -9.154
REMARK INTER:                  -8.676
REMARK INTRA:                  -0.478
REMARK UNBOUND:                -0.844
REMARK  Name = 
REMARK  6 active torsions:
REMARK  status: ('A' for Active; 'I' for Inactive)
REMARK    1  A    between atoms: C_1  and  C_2
REMARK    2  A    between atoms: C_2  and  N_3
REMARK    3  A    between atoms: C_2  and  C_16
REMARK    4  A    between atoms: C_4  and  C_6
REMARK    5  A    between atoms: C_19  and  O_20
REMARK    6  A    between atoms: O_20  and  C_21
REMARK                            x       y       z     vdW  Elec       q    Type
REMARK                         _______ _______ _______ _____ _____    ______ ____
ROOT
ATOM      1  C   UNL     1      50.099   8.456  13.998  0.00  0.00    +0.000 C 
ATOM      2  C   UNL     1      48.960   8.092  14.961  0.00  0.00    +0.000 C 
ENDROOT
BRANCH   2   3
ATOM      3  C   UNL     1      49.441   7.029  15.938  0.00  0.00    +0.000 A 
ATOM      4  C   UNL     1      48.509   6.243  16.628  0.00  0.00    +0.000 A 
ATOM      5  C   UNL     1      48.932   5.319  17.586  0.00  0.00    +0.000 A 
ATOM      6  C   UNL     1      50.293   5.129  17.835  0.00  0.00    +0.000 A 
ATOM      7  C   UNL     1      51.230   5.900  17.150  0.00  0.00    +0.000 A 
ATOM      8  C   UNL     1      50.808   6.837  16.201  0.00  0.00    +0.000 A 
BRANCH   6   9
ATOM      9  O   UNL     1      50.789   4.271  18.793  0.00  0.00    +0.000 OA
BRANCH   9  10
ATOM     10  C   UNL     1      51.596   3.220  18.387  0.00  0.00    +0.000 A 
ATOM     11  C   UNL     1      50.998   2.236  17.609  0.00  0.00    +0.000 A 
ATOM     12  C   UNL     1      51.785   1.177  17.169  0.00  0.00    +0.000 A 
ATOM     13  C   UNL     1      53.131   1.132  17.519  0.00  0.00    +0.000 A 
ATOM     14  C   UNL     1      53.632   2.144  18.320  0.00  0.00    +0.000 A 
ATOM     15  N   UNL     1      52.892   3.171  18.776  0.00  0.00    +0.000 NA
ENDBRANCH   9  10
ENDBRANCH   6   9
ENDBRANCH   2   3
BRANCH   2  16
ATOM     16  N   UNL     1      47.765   7.636  14.271  0.00  0.00    +0.000 N 
ATOM     17  C   UNL     1      47.819   6.721  13.248  0.00  0.00    +0.000 C 
ATOM     18  O   UNL     1      48.864   6.186  12.889  0.00  0.00    +0.000 OA
ATOM     19  H   UNL     1      46.969   8.269  14.295  0.00  0.00    +0.000 HD
BRANCH  17  20
ATOM     20  C   UNL     1      46.541   6.350  12.635  0.00  0.00    +0.000 A 
ATOM     21  C   UNL     1      45.758   7.328  12.036  0.00  0.00    +0.000 A 
ATOM     22  S   UNL     1      44.306   6.728  11.375  0.00  0.00    +0.000 S 
ATOM     23  C   UNL     1      44.654   5.148  11.906  0.00  0.00    +0.000 A 
ATOM     24  N   UNL     1      43.777   4.130  11.698  0.00  0.00    +0.000 NA
ATOM     25  C   UNL     1      44.156   2.995  12.183  0.00  0.00    +0.000 A 
ATOM     26  N   UNL     1      45.340   2.783  12.844  0.00  0.00    +0.000 N 
ATOM     27  C   UNL     1      46.271   3.773  13.045  0.00  0.00    +0.000 A 
ATOM     28  O   UNL     1      47.348   3.544  13.585  0.00  0.00    +0.000 OA
ATOM     29  C   UNL     1      45.878   5.075  12.547  0.00  0.00    +0.000 A 
ATOM     30  H   UNL     1      45.585   1.864  13.182  0.00  0.00    +0.000 HD
ENDBRANCH  17  20
ENDBRANCH   2  16
TORSDOF 5
ENDMDL
