MODEL 1
REMARK VINA RESULT:    -8.305      0.000      0.000
REMARK INTER + INTRA:         -13.070
REMARK INTER:                 -11.946
REMARK INTRA:                  -1.124
REMARK UNBOUND:                -1.124
REMARK  Name = 
REMARK  8 active torsions:
REMARK  status: ('A' for Active; 'I' for Inactive)
REMARK    1  A    between atoms: C_2  and  C_20
REMARK    2  A    between atoms: N_3  and  C_4
REMARK    3  A    between atoms: C_4  and  C_5
REMARK    4  A    between atoms: C_8  and  C_9
REMARK    5  A    between atoms: C_9  and  O_10
REMARK    6  A    between atoms: O_10  and  C_11
REMARK    7  A    between atoms: C_11  and  C_12
REMARK    8  A    between atoms: C_27  and  O_28
REMARK                            x       y       z     vdW  Elec       q    Type
REMARK                         _______ _______ _______ _____ _____    ______ ____
ROOT
ATOM      1  C   UNL     1      46.911   8.003  13.007  0.00  0.00    +0.000 C 
ENDROOT
BRANCH   1   2
ATOM      2  C   UNL     1      46.048   6.918  12.421  0.00  0.00    +0.000 A 
ATOM      3  C   UNL     1      46.215   6.513  11.090  0.00  0.00    +0.000 A 
ATOM      4  C   UNL     1      45.427   5.486  10.558  0.00  0.00    +0.000 A 
ATOM      5  C   UNL     1      44.449   4.856  11.339  0.00  0.00    +0.000 A 
ATOM      6  C   UNL     1      44.270   5.278  12.663  0.00  0.00    +0.000 A 
ATOM      7  C   UNL     1      45.055   6.304  13.195  0.00  0.00    +0.000 A 
BRANCH   5   8
ATOM      8  C   UNL     1      43.587   3.764  10.758  0.00  0.00    +0.000 C 
BRANCH   8   9
ATOM      9  O   UNL     1      44.014   3.486   9.430  0.00  0.00    +0.000 OA
BRANCH   9  10
ATOM     10  C   UNL     1      44.743   2.262   9.353  0.00  0.00    +0.000 C 
BRANCH  10  11
ATOM     11  C   UNL     1      45.762   2.332   8.243  0.00  0.00    +0.000 A 
ATOM     12  C   UNL     1      46.564   1.225   7.926  0.00  0.00    +0.000 A 
ATOM     13  C   UNL     1      47.470   1.281   6.866  0.00  0.00    +0.000 A 
ATOM     14  C   UNL     1      47.578   2.440   6.102  0.00  0.00    +0.000 A 
ATOM     15  C   UNL     1      46.782   3.546   6.399  0.00  0.00    +0.000 A 
ATOM     16  C   UNL     1      45.877   3.491   7.462  0.00  0.00    +0.000 A 
ENDBRANCH  10  11
ENDBRANCH   9  10
ENDBRANCH   8   9
ENDBRANCH   5   8
ENDBRANCH   1   2
BRANCH   1  19
ATOM     17  O   UNL     1      49.170   6.460  13.327  0.00  0.00    +0.000 OA
ATOM     18  C   UNL     1      48.606   6.855  14.342  0.00  0.00    +0.000 C 
ATOM     19  N   UNL     1      47.471   7.619  14.276  0.00  0.00    +0.000 N 
ATOM     20  H   UNL     1      46.985   7.902  15.119  0.00  0.00    +0.000 HD
BRANCH  18  21
ATOM     21  C   UNL     1      49.127   6.527  15.677  0.00  0.00    +0.000 A 
ATOM     22  C   UNL     1      50.221   7.231  16.165  0.00  0.00    +0.000 A 
ATOM     23  S   UNL     1      50.713   6.747  17.720  0.00  0.00    +0.000 S 
ATOM     24  C   UNL     1      49.490   5.570  17.789  0.00  0.00    +0.000 A 
ATOM     25  N   UNL     1      49.381   4.781  18.873  0.00  0.00    +0.000 NA
ATOM     26  C   UNL     1      48.378   3.906  18.778  0.00  0.00    +0.000 A 
ATOM     27  N   UNL     1      47.517   3.766  17.761  0.00  0.00    +0.000 NA
ATOM     28  C   UNL     1      47.682   4.580  16.718  0.00  0.00    +0.000 A 
ATOM     29  C   UNL     1      48.690   5.541  16.653  0.00  0.00    +0.000 A 
BRANCH  28  30
ATOM     30  O   UNL     1      46.770   4.371  15.722  0.00  0.00    +0.000 OA
ATOM     31  H   UNL     1      46.592   3.419  15.837  0.00  0.00    +0.000 HD
ENDBRANCH  28  30
ENDBRANCH  18  21
ENDBRANCH   1  19
TORSDOF 8
ENDMDL
MODEL 2
REMARK VINA RESULT:    -7.954      2.179      2.706
REMARK INTER + INTRA:         -12.565
REMARK INTER:                 -11.341
REMARK INTRA:                  -1.225
REMARK UNBOUND:                -1.124
REMARK  Name = 
REMARK  8 active torsions:
REMARK  status: ('A' for Active; 'I' for Inactive)
REMARK    1  A    between atoms: C_2  and  C_20
REMARK    2  A    between atoms: N_3  and  C_4
REMARK    3  A    between atoms: C_4  and  C_5
REMARK    4  A    between atoms: C_8  and  C_9
REMARK    5  A    between atoms: C_9  and  O_10
REMARK    6  A    between atoms: O_10  and  C_11
REMARK    7  A    between atoms: C_11  and  C_12
REMARK    8  A    between atoms: C_27  and  O_28
REMARK                            x       y       z     vdW  Elec       q    Type
REMARK                         _______ _______ _______ _____ _____    ______ ____
ROOT
ATOM      1  C   UNL     1      47.919   7.169  13.378  0.00  0.00    +0.000 C 
ENDROOT
BRANCH   1   2
ATOM      2  C   UNL     1      46.811   6.356  12.765  0.00  0.00    +0.000 A 
ATOM      3  C   UNL     1      46.437   6.552  11.429  0.00  0.00    +0.000 A 
ATOM      4  C   UNL     1      45.423   5.776  10.856  0.00  0.00    +0.000 A 
ATOM      5  C   UNL     1      44.754   4.803  11.610  0.00  0.00    +0.000 A 
ATOM      6  C   UNL     1      45.116   4.624  12.952  0.00  0.00    +0.000 A 
ATOM      7  C   UNL     1      46.128   5.398  13.525  0.00  0.00    +0.000 A 
BRANCH   5   8
ATOM      8  C   UNL     1      43.648   3.981  10.998  0.00  0.00    +0.000 C 
BRANCH   8   9
ATOM      9  O   UNL     1      44.010   3.622   9.670  0.00  0.00    +0.000 OA
BRANCH   9  10
ATOM     10  C   UNL     1      44.758   2.408   9.635  0.00  0.00    +0.000 C 
BRANCH  10  11
ATOM     11  C   UNL     1      45.656   2.384   8.423  0.00  0.00    +0.000 A 
ATOM     12  C   UNL     1      45.879   3.543   7.664  0.00  0.00    +0.000 A 
ATOM     13  C   UNL     1      46.749   3.525   6.573  0.00  0.00    +0.000 A 
ATOM     14  C   UNL     1      47.417   2.351   6.235  0.00  0.00    +0.000 A 
ATOM     15  C   UNL     1      47.214   1.193   6.984  0.00  0.00    +0.000 A 
ATOM     16  C   UNL     1      46.341   1.210   8.075  0.00  0.00    +0.000 A 
ENDBRANCH  10  11
ENDBRANCH   9  10
ENDBRANCH   8   9
ENDBRANCH   5   8
ENDBRANCH   1   2
BRANCH   1  19
ATOM     17  O   UNL     1      50.010   6.534  15.057  0.00  0.00    +0.000 OA
ATOM     18  C   UNL     1      48.945   6.854  15.575  0.00  0.00    +0.000 C 
ATOM     19  N   UNL     1      47.850   7.175  14.816  0.00  0.00    +0.000 N 
ATOM     20  H   UNL     1      46.961   7.393  15.252  0.00  0.00    +0.000 HD
BRANCH  18  21
ATOM     21  C   UNL     1      48.797   6.909  17.037  0.00  0.00    +0.000 A 
ATOM     22  C   UNL     1      49.140   5.792  17.790  0.00  0.00    +0.000 A 
ATOM     23  S   UNL     1      48.920   5.999  19.464  0.00  0.00    +0.000 S 
ATOM     24  C   UNL     1      48.346   7.581  19.239  0.00  0.00    +0.000 A 
ATOM     25  N   UNL     1      47.959   8.311  20.302  0.00  0.00    +0.000 NA
ATOM     26  C   UNL     1      47.531   9.528  19.965  0.00  0.00    +0.000 A 
ATOM     27  N   UNL     1      47.469  10.056  18.736  0.00  0.00    +0.000 NA
ATOM     28  C   UNL     1      47.867   9.279  17.728  0.00  0.00    +0.000 A 
ATOM     29  C   UNL     1      48.330   7.977  17.907  0.00  0.00    +0.000 A 
BRANCH  28  30
ATOM     30  O   UNL     1      47.769   9.886  16.508  0.00  0.00    +0.000 OA
ATOM     31  H   UNL     1      47.569   9.119  15.940  0.00  0.00    +0.000 HD
ENDBRANCH  28  30
ENDBRANCH  18  21
ENDBRANCH   1  19
TORSDOF 8
ENDMDL
MODEL 3
REMARK VINA RESULT:    -7.952      1.924      2.483
REMARK INTER + INTRA:         -12.563
REMARK INTER:                 -11.412
REMARK INTRA:                  -1.152
REMARK UNBOUND:                -1.124
REMARK  Name = 
REMARK  8 active torsions:
REMARK  status: ('A' for Active; 'I' for Inactive)
REMARK    1  A    between atoms: C_2  and  C_20
REMARK    2  A    between atoms: N_3  and  C_4
REMARK    3  A    between atoms: C_4  and  C_5
REMARK    4  A    between atoms: C_8  and  C_9
REMARK    5  A    between atoms: C_9  and  O_10
REMARK    6  A    between atoms: O_10  and  C_11
REMARK    7  A    between atoms: C_11  and  C_12
REMARK    8  A    between atoms: C_27  and  O_28
REMARK                            x       y       z     vdW  Elec       q    Type
REMARK                         _______ _______ _______ _____ _____    ______ ____
ROOT
ATOM      1  C   UNL     1      48.477   6.445  14.053  0.00  0.00    +0.000 C 
ENDROOT
BRANCH   1   2
ATOM      2  C   UNL     1      47.273   5.927  13.315  0.00  0.00    +0.000 A 
ATOM      3  C   UNL     1      46.589   4.792  13.770  0.00  0.00    +0.000 A 
ATOM      4  C   UNL     1      45.455   4.329  13.094  0.00  0.00    +0.000 A 
ATOM      5  C   UNL     1      44.992   4.981  11.943  0.00  0.00    +0.000 A 
ATOM      6  C   UNL     1      45.689   6.103  11.479  0.00  0.00    +0.000 A 
ATOM      7  C   UNL     1      46.823   6.566  12.152  0.00  0.00    +0.000 A 
BRANCH   5   8
ATOM      8  C   UNL     1      43.782   4.469  11.205  0.00  0.00    +0.000 C 
BRANCH   8   9
ATOM      9  O   UNL     1      44.149   4.146   9.869  0.00  0.00    +0.000 OA
BRANCH   9  10
ATOM     10  C   UNL     1      44.533   2.777   9.741  0.00  0.00    +0.000 C 
BRANCH  10  11
ATOM     11  C   UNL     1      45.461   2.604   8.565  0.00  0.00    +0.000 A 
ATOM     12  C   UNL     1      45.753   3.677   7.709  0.00  0.00    +0.000 A 
ATOM     13  C   UNL     1      46.651   3.522   6.651  0.00  0.00    +0.000 A 
ATOM     14  C   UNL     1      47.277   2.296   6.444  0.00  0.00    +0.000 A 
ATOM     15  C   UNL     1      47.004   1.222   7.290  0.00  0.00    +0.000 A 
ATOM     16  C   UNL     1      46.104   1.376   8.348  0.00  0.00    +0.000 A 
ENDBRANCH  10  11
ENDBRANCH   9  10
ENDBRANCH   8   9
ENDBRANCH   5   8
ENDBRANCH   1   2
BRANCH   1  19
ATOM     17  O   UNL     1      49.751   5.420  16.271  0.00  0.00    +0.000 OA
ATOM     18  C   UNL     1      48.858   6.240  16.459  0.00  0.00    +0.000 C 
ATOM     19  N   UNL     1      48.165   6.793  15.415  0.00  0.00    +0.000 N 
ATOM     20  H   UNL     1      47.397   7.434  15.582  0.00  0.00    +0.000 HD
BRANCH  18  21
ATOM     21  C   UNL     1      48.493   6.667  17.819  0.00  0.00    +0.000 A 
ATOM     22  C   UNL     1      48.086   7.979  18.025  0.00  0.00    +0.000 A 
ATOM     23  S   UNL     1      47.693   8.330  19.643  0.00  0.00    +0.000 S 
ATOM     24  C   UNL     1      48.068   6.745  20.124  0.00  0.00    +0.000 A 
ATOM     25  N   UNL     1      47.960   6.395  21.420  0.00  0.00    +0.000 NA
ATOM     26  C   UNL     1      48.292   5.122  21.642  0.00  0.00    +0.000 A 
ATOM     27  N   UNL     1      48.687   4.217  20.737  0.00  0.00    +0.000 NA
ATOM     28  C   UNL     1      48.772   4.629  19.472  0.00  0.00    +0.000 A 
ATOM     29  C   UNL     1      48.475   5.932  19.073  0.00  0.00    +0.000 A 
BRANCH  28  30
ATOM     30  O   UNL     1      49.186   3.651  18.612  0.00  0.00    +0.000 OA
ATOM     31  H   UNL     1      49.635   4.187  17.932  0.00  0.00    +0.000 HD
ENDBRANCH  28  30
ENDBRANCH  18  21
ENDBRANCH   1  19
TORSDOF 8
ENDMDL
MODEL 4
REMARK VINA RESULT:    -7.395      2.004      3.474
REMARK INTER + INTRA:         -11.761
REMARK INTER:                 -10.584
REMARK INTRA:                  -1.177
REMARK UNBOUND:                -1.124
REMARK  Name = 
REMARK  8 active torsions:
REMARK  status: ('A' for Active; 'I' for Inactive)
REMARK    1  A    between atoms: C_2  and  C_20
REMARK    2  A    between atoms: N_3  and  C_4
REMARK    3  A    between atoms: C_4  and  C_5
REMARK    4  A    between atoms: C_8  and  C_9
REMARK    5  A    between atoms: C_9  and  O_10
REMARK    6  A    between atoms: O_10  and  C_11
REMARK    7  A    between atoms: C_11  and  C_12
REMARK    8  A    between atoms: C_27  and  O_28
REMARK                            x       y       z     vdW  Elec       q    Type
REMARK                         _______ _______ _______ _____ _____    ______ ____
ROOT
ATOM      1  C   UNL     1      47.346   4.503  14.867  0.00  0.00    +0.000 C 
ENDROOT
BRANCH   1   2
ATOM      2  C   UNL     1      46.382   4.532  13.711  0.00  0.00    +0.000 A 
ATOM      3  C   UNL     1      46.046   3.354  13.032  0.00  0.00    +0.000 A 
ATOM      4  C   UNL     1      45.130   3.383  11.974  0.00  0.00    +0.000 A 
ATOM      5  C   UNL     1      44.546   4.590  11.566  0.00  0.00    +0.000 A 
ATOM      6  C   UNL     1      44.900   5.769  12.234  0.00  0.00    +0.000 A 
ATOM      7  C   UNL     1      45.815   5.742  13.290  0.00  0.00    +0.000 A 
BRANCH   5   8
ATOM      8  C   UNL     1      43.575   4.623  10.413  0.00  0.00    +0.000 C 
BRANCH   8   9
ATOM      9  O   UNL     1      43.962   3.655   9.445  0.00  0.00    +0.000 OA
BRANCH   9  10
ATOM     10  C   UNL     1      44.783   4.223   8.426  0.00  0.00    +0.000 C 
BRANCH  10  11
ATOM     11  C   UNL     1      45.746   3.190   7.896  0.00  0.00    +0.000 A 
ATOM     12  C   UNL     1      45.764   1.885   8.410  0.00  0.00    +0.000 A 
ATOM     13  C   UNL     1      46.624   0.921   7.882  0.00  0.00    +0.000 A 
ATOM     14  C   UNL     1      47.470   1.247   6.825  0.00  0.00    +0.000 A 
ATOM     15  C   UNL     1      47.459   2.537   6.297  0.00  0.00    +0.000 A 
ATOM     16  C   UNL     1      46.599   3.503   6.827  0.00  0.00    +0.000 A 
ENDBRANCH  10  11
ENDBRANCH   9  10
ENDBRANCH   8   9
ENDBRANCH   5   8
ENDBRANCH   1   2
BRANCH   1  19
ATOM     17  O   UNL     1      49.033   5.073  16.969  0.00  0.00    +0.000 OA
ATOM     18  C   UNL     1      48.656   6.012  16.274  0.00  0.00    +0.000 C 
ATOM     19  N   UNL     1      47.809   5.820  15.215  0.00  0.00    +0.000 N 
ATOM     20  H   UNL     1      47.465   6.607  14.676  0.00  0.00    +0.000 HD
BRANCH  18  21
ATOM     21  C   UNL     1      49.102   7.386  16.548  0.00  0.00    +0.000 A 
ATOM     22  C   UNL     1      48.851   7.938  17.799  0.00  0.00    +0.000 A 
ATOM     23  S   UNL     1      49.423   9.531  17.974  0.00  0.00    +0.000 S 
ATOM     24  C   UNL     1      50.011   9.542  16.382  0.00  0.00    +0.000 A 
ATOM     25  N   UNL     1      50.607  10.648  15.896  0.00  0.00    +0.000 NA
ATOM     26  C   UNL     1      51.011  10.505  14.633  0.00  0.00    +0.000 A 
ATOM     27  N   UNL     1      50.893   9.417  13.860  0.00  0.00    +0.000 NA
ATOM     28  C   UNL     1      50.293   8.356  14.404  0.00  0.00    +0.000 A 
ATOM     29  C   UNL     1      49.800   8.345  15.707  0.00  0.00    +0.000 A 
BRANCH  28  30
ATOM     30  O   UNL     1      50.207   7.291  13.553  0.00  0.00    +0.000 OA
ATOM     31  H   UNL     1      50.076   6.563  14.189  0.00  0.00    +0.000 HD
ENDBRANCH  28  30
ENDBRANCH  18  21
ENDBRANCH   1  19
TORSDOF 8
ENDMDL
MODEL 5
REMARK VINA RESULT:    -7.348      2.376      2.971
REMARK INTER + INTRA:         -11.694
REMARK INTER:                 -10.549
REMARK INTRA:                  -1.145
REMARK UNBOUND:                -1.124
REMARK  Name = 
REMARK  8 active torsions:
REMARK  status: ('A' for Active; 'I' for Inactive)
REMARK    1  A    between atoms: C_2  and  C_20
REMARK    2  A    between atoms: N_3  and  C_4
REMARK    3  A    between atoms: C_4  and  C_5
REMARK    4  A    between atoms: C_8  and  C_9
REMARK    5  A    between atoms: C_9  and  O_10
REMARK    6  A    between atoms: O_10  and  C_11
REMARK    7  A    between atoms: C_11  and  C_12
REMARK    8  A    between atoms: C_27  and  O_28
REMARK                            x       y       z     vdW  Elec       q    Type
REMARK                         _______ _______ _______ _____ _____    ______ ____
ROOT
ATOM      1  C   UNL     1      47.433   4.464  14.830  0.00  0.00    +0.000 C 
ENDROOT
BRANCH   1   2
ATOM      2  C   UNL     1      46.446   4.495  13.694  0.00  0.00    +0.000 A 
ATOM      3  C   UNL     1      46.047   3.311  13.062  0.00  0.00    +0.000 A 
ATOM      4  C   UNL     1      45.109   3.343  12.023  0.00  0.00    +0.000 A 
ATOM      5  C   UNL     1      44.566   4.559  11.587  0.00  0.00    +0.000 A 
ATOM      6  C   UNL     1      44.983   5.744  12.207  0.00  0.00    +0.000 A 
ATOM      7  C   UNL     1      45.920   5.713  13.244  0.00  0.00    +0.000 A 
BRANCH   5   8
ATOM      8  C   UNL     1      43.572   4.595  10.455  0.00  0.00    +0.000 C 
BRANCH   8   9
ATOM      9  O   UNL     1      43.971   3.669   9.451  0.00  0.00    +0.000 OA
BRANCH   9  10
ATOM     10  C   UNL     1      44.854   4.264   8.501  0.00  0.00    +0.000 C 
BRANCH  10  11
ATOM     11  C   UNL     1      45.780   3.221   7.926  0.00  0.00    +0.000 A 
ATOM     12  C   UNL     1      45.807   1.915   8.439  0.00  0.00    +0.000 A 
ATOM     13  C   UNL     1      46.631   0.942   7.871  0.00  0.00    +0.000 A 
ATOM     14  C   UNL     1      47.430   1.260   6.775  0.00  0.00    +0.000 A 
ATOM     15  C   UNL     1      47.408   2.550   6.248  0.00  0.00    +0.000 A 
ATOM     16  C   UNL     1      46.585   3.525   6.819  0.00  0.00    +0.000 A 
ENDBRANCH  10  11
ENDBRANCH   9  10
ENDBRANCH   8   9
ENDBRANCH   5   8
ENDBRANCH   1   2
BRANCH   1  19
ATOM     17  O   UNL     1      49.392   5.068  16.671  0.00  0.00    +0.000 OA
ATOM     18  C   UNL     1      48.689   5.990  16.268  0.00  0.00    +0.000 C 
ATOM     19  N   UNL     1      47.685   5.778  15.361  0.00  0.00    +0.000 N 
ATOM     20  H   UNL     1      47.079   6.537  15.069  0.00  0.00    +0.000 HD
BRANCH  18  21
ATOM     21  C   UNL     1      48.897   7.367  16.743  0.00  0.00    +0.000 A 
ATOM     22  C   UNL     1      48.879   8.406  15.821  0.00  0.00    +0.000 A 
ATOM     23  S   UNL     1      49.130   9.941  16.511  0.00  0.00    +0.000 S 
ATOM     24  C   UNL     1      49.285   9.267  18.062  0.00  0.00    +0.000 A 
ATOM     25  N   UNL     1      49.537  10.065  19.116  0.00  0.00    +0.000 NA
ATOM     26  C   UNL     1      49.635   9.391  20.263  0.00  0.00    +0.000 A 
ATOM     27  N   UNL     1      49.500   8.071  20.443  0.00  0.00    +0.000 NA
ATOM     28  C   UNL     1      49.251   7.339  19.357  0.00  0.00    +0.000 A 
ATOM     29  C   UNL     1      49.133   7.886  18.080  0.00  0.00    +0.000 A 
BRANCH  28  30
ATOM     30  O   UNL     1      49.133   6.004  19.622  0.00  0.00    +0.000 OA
ATOM     31  H   UNL     1      50.063   5.722  19.547  0.00  0.00    +0.000 HD
ENDBRANCH  28  30
ENDBRANCH  18  21
ENDBRANCH   1  19
TORSDOF 8
ENDMDL
MODEL 6
REMARK VINA RESULT:    -7.243      3.318      8.426
REMARK INTER + INTRA:         -11.542
REMARK INTER:                  -9.773
REMARK INTRA:                  -1.769
REMARK UNBOUND:                -1.124
REMARK  Name = 
REMARK  8 active torsions:
REMARK  status: ('A' for Active; 'I' for Inactive)
REMARK    1  A    between atoms: C_2  and  C_20
REMARK    2  A    between atoms: N_3  and  C_4
REMARK    3  A    between atoms: C_4  and  C_5
REMARK    4  A    between atoms: C_8  and  C_9
REMARK    5  A    between atoms: C_9  and  O_10
REMARK    6  A    between atoms: O_10  and  C_11
REMARK    7  A    between atoms: C_11  and  C_12
REMARK    8  A    between atoms: C_27  and  O_28
REMARK                            x       y       z     vdW  Elec       q    Type
REMARK                         _______ _______ _______ _____ _____    ______ ____
ROOT
ATOM      1  C   UNL     1      47.700   7.816  12.157  0.00  0.00    +0.000 C 
ENDROOT
BRANCH   1   2
ATOM      2  C   UNL     1      48.180   7.890  13.582  0.00  0.00    +0.000 A 
ATOM      3  C   UNL     1      47.799   8.954  14.410  0.00  0.00    +0.000 A 
ATOM      4  C   UNL     1      48.227   9.004  15.741  0.00  0.00    +0.000 A 
ATOM      5  C   UNL     1      49.057   8.003  16.265  0.00  0.00    +0.000 A 
ATOM      6  C   UNL     1      49.453   6.951  15.428  0.00  0.00    +0.000 A 
ATOM      7  C   UNL     1      49.026   6.900  14.098  0.00  0.00    +0.000 A 
BRANCH   5   8
ATOM      8  C   UNL     1      49.534   8.069  17.693  0.00  0.00    +0.000 C 
BRANCH   8   9
ATOM      9  O   UNL     1      48.555   7.484  18.543  0.00  0.00    +0.000 OA
BRANCH   9  10
ATOM     10  C   UNL     1      49.059   6.334  19.220  0.00  0.00    +0.000 C 
BRANCH  10  11
ATOM     11  C   UNL     1      48.735   5.086  18.438  0.00  0.00    +0.000 A 
ATOM     12  C   UNL     1      47.450   4.870  17.917  0.00  0.00    +0.000 A 
ATOM     13  C   UNL     1      47.171   3.736  17.153  0.00  0.00    +0.000 A 
ATOM     14  C   UNL     1      48.176   2.809  16.890  0.00  0.00    +0.000 A 
ATOM     15  C   UNL     1      49.460   3.013  17.393  0.00  0.00    +0.000 A 
ATOM     16  C   UNL     1      49.740   4.147  18.160  0.00  0.00    +0.000 A 
ENDBRANCH  10  11
ENDBRANCH   9  10
ENDBRANCH   8   9
ENDBRANCH   5   8
ENDBRANCH   1   2
BRANCH   1  19
ATOM     17  O   UNL     1      45.009   7.403  12.583  0.00  0.00    +0.000 OA
ATOM     18  C   UNL     1      45.659   6.471  12.121  0.00  0.00    +0.000 C 
ATOM     19  N   UNL     1      47.004   6.585  11.887  0.00  0.00    +0.000 N 
ATOM     20  H   UNL     1      47.542   5.795  11.549  0.00  0.00    +0.000 HD
BRANCH  18  21
ATOM     21  C   UNL     1      45.019   5.187  11.795  0.00  0.00    +0.000 A 
ATOM     22  C   UNL     1      44.340   4.501  12.794  0.00  0.00    +0.000 A 
ATOM     23  S   UNL     1      43.650   3.036  12.274  0.00  0.00    +0.000 S 
ATOM     24  C   UNL     1      44.248   3.260  10.701  0.00  0.00    +0.000 A 
ATOM     25  N   UNL     1      44.018   2.328   9.757  0.00  0.00    +0.000 NA
ATOM     26  C   UNL     1      44.553   2.644   8.577  0.00  0.00    +0.000 A 
ATOM     27  N   UNL     1      45.246   3.748   8.269  0.00  0.00    +0.000 NA
ATOM     28  C   UNL     1      45.438   4.631   9.250  0.00  0.00    +0.000 A 
ATOM     29  C   UNL     1      44.957   4.446  10.545  0.00  0.00    +0.000 A 
BRANCH  28  30
ATOM     30  O   UNL     1      46.157   5.724   8.859  0.00  0.00    +0.000 OA
ATOM     31  H   UNL     1      45.456   6.402   8.835  0.00  0.00    +0.000 HD
ENDBRANCH  28  30
ENDBRANCH  18  21
ENDBRANCH   1  19
TORSDOF 8
ENDMDL
MODEL 7
REMARK VINA RESULT:    -7.082      2.265      3.396
REMARK INTER + INTRA:         -11.311
REMARK INTER:                 -10.471
REMARK INTRA:                  -0.840
REMARK UNBOUND:                -1.124
REMARK  Name = 
REMARK  8 active torsions:
REMARK  status: ('A' for Active; 'I' for Inactive)
REMARK    1  A    between atoms: C_2  and  C_20
REMARK    2  A    between atoms: N_3  and  C_4
REMARK    3  A    between atoms: C_4  and  C_5
REMARK    4  A    between atoms: C_8  and  C_9
REMARK    5  A    between atoms: C_9  and  O_10
REMARK    6  A    between atoms: O_10  and  C_11
REMARK    7  A    between atoms: C_11  and  C_12
REMARK    8  A    between atoms: C_27  and  O_28
REMARK                            x       y       z     vdW  Elec       q    Type
REMARK                         _______ _______ _______ _____ _____    ______ ____
ROOT
ATOM      1  C   UNL     1      47.337   4.003  15.238  0.00  0.00    +0.000 C 
ENDROOT
BRANCH   1   2
ATOM      2  C   UNL     1      46.750   4.519  13.951  0.00  0.00    +0.000 A 
ATOM      3  C   UNL     1      47.168   5.745  13.417  0.00  0.00    +0.000 A 
ATOM      4  C   UNL     1      46.638   6.208  12.207  0.00  0.00    +0.000 A 
ATOM      5  C   UNL     1      45.671   5.465  11.518  0.00  0.00    +0.000 A 
ATOM      6  C   UNL     1      45.240   4.249  12.066  0.00  0.00    +0.000 A 
ATOM      7  C   UNL     1      45.767   3.786  13.274  0.00  0.00    +0.000 A 
BRANCH   5   8
ATOM      8  C   UNL     1      45.086   5.974  10.226  0.00  0.00    +0.000 C 
BRANCH   8   9
ATOM      9  O   UNL     1      45.697   5.297   9.135  0.00  0.00    +0.000 OA
BRANCH   9  10
ATOM     10  C   UNL     1      44.942   4.156   8.729  0.00  0.00    +0.000 C 
BRANCH  10  11
ATOM     11  C   UNL     1      45.828   3.179   7.996  0.00  0.00    +0.000 A 
ATOM     12  C   UNL     1      46.720   3.614   7.004  0.00  0.00    +0.000 A 
ATOM     13  C   UNL     1      47.570   2.712   6.364  0.00  0.00    +0.000 A 
ATOM     14  C   UNL     1      47.549   1.365   6.715  0.00  0.00    +0.000 A 
ATOM     15  C   UNL     1      46.674   0.918   7.705  0.00  0.00    +0.000 A 
ATOM     16  C   UNL     1      45.821   1.820   8.344  0.00  0.00    +0.000 A 
ENDBRANCH  10  11
ENDBRANCH   9  10
ENDBRANCH   8   9
ENDBRANCH   5   8
ENDBRANCH   1   2
BRANCH   1  19
ATOM     17  O   UNL     1      48.140   3.596  17.841  0.00  0.00    +0.000 OA
ATOM     18  C   UNL     1      47.830   4.738  17.517  0.00  0.00    +0.000 C 
ATOM     19  N   UNL     1      47.409   5.028  16.246  0.00  0.00    +0.000 N 
ATOM     20  H   UNL     1      47.109   5.965  15.999  0.00  0.00    +0.000 HD
BRANCH  18  21
ATOM     21  C   UNL     1      47.898   5.847  18.480  0.00  0.00    +0.000 A 
ATOM     22  C   UNL     1      47.634   5.591  19.820  0.00  0.00    +0.000 A 
ATOM     23  S   UNL     1      47.752   6.964  20.818  0.00  0.00    +0.000 S 
ATOM     24  C   UNL     1      48.145   7.949  19.492  0.00  0.00    +0.000 A 
ATOM     25  N   UNL     1      48.353   9.267  19.674  0.00  0.00    +0.000 NA
ATOM     26  C   UNL     1      48.648   9.906  18.541  0.00  0.00    +0.000 A 
ATOM     27  N   UNL     1      48.760   9.376  17.315  0.00  0.00    +0.000 NA
ATOM     28  C   UNL     1      48.542   8.065  17.205  0.00  0.00    +0.000 A 
ATOM     29  C   UNL     1      48.209   7.254  18.289  0.00  0.00    +0.000 A 
BRANCH  28  30
ATOM     30  O   UNL     1      48.669   7.603  15.926  0.00  0.00    +0.000 OA
ATOM     31  H   UNL     1      48.103   8.238  15.448  0.00  0.00    +0.000 HD
ENDBRANCH  28  30
ENDBRANCH  18  21
ENDBRANCH   1  19
TORSDOF 8
ENDMDL
MODEL 8
REMARK VINA RESULT:    -6.835      3.971      8.079
REMARK INTER + INTRA:         -10.956
REMARK INTER:                  -8.768
REMARK INTRA:                  -2.188
REMARK UNBOUND:                -1.124
REMARK  Name = 
REMARK  8 active torsions:
REMARK  status: ('A' for Active; 'I' for Inactive)
REMARK    1  A    between atoms: C_2  and  C_20
REMARK    2  A    between atoms: N_3  and  C_4
REMARK    3  A    between atoms: C_4  and  C_5
REMARK    4  A    between atoms: C_8  and  C_9
REMARK    5  A    between atoms: C_9  and  O_10
REMARK    6  A    between atoms: O_10  and  C_11
REMARK    7  A    between atoms: C_11  and  C_12
REMARK    8  A    between atoms: C_27  and  O_28
REMARK                            x       y       z     vdW  Elec       q    Type
REMARK                         _______ _______ _______ _____ _____    ______ ____
ROOT
ATOM      1  C   UNL     1      49.678   7.869  13.860  0.00  0.00    +0.000 C 
ENDROOT
BRANCH   1   2
ATOM      2  C   UNL     1      49.720   7.651  15.349  0.00  0.00    +0.000 A 
ATOM      3  C   UNL     1      50.746   6.895  15.931  0.00  0.00    +0.000 A 
ATOM      4  C   UNL     1      50.795   6.717  17.318  0.00  0.00    +0.000 A 
ATOM      5  C   UNL     1      49.813   7.276  18.147  0.00  0.00    +0.000 A 
ATOM      6  C   UNL     1      48.777   8.014  17.560  0.00  0.00    +0.000 A 
ATOM      7  C   UNL     1      48.726   8.192  16.174  0.00  0.00    +0.000 A 
BRANCH   5   8
ATOM      8  C   UNL     1      49.855   7.067  19.639  0.00  0.00    +0.000 C 
BRANCH   8   9
ATOM      9  O   UNL     1      48.614   6.522  20.072  0.00  0.00    +0.000 OA
BRANCH   9  10
ATOM     10  C   UNL     1      48.688   5.107  20.244  0.00  0.00    +0.000 C 
BRANCH  10  11
ATOM     11  C   UNL     1      48.430   4.408  18.933  0.00  0.00    +0.000 A 
ATOM     12  C   UNL     1      47.300   4.712  18.160  0.00  0.00    +0.000 A 
ATOM     13  C   UNL     1      47.093   4.096  16.925  0.00  0.00    +0.000 A 
ATOM     14  C   UNL     1      48.021   3.178  16.441  0.00  0.00    +0.000 A 
ATOM     15  C   UNL     1      49.154   2.871  17.193  0.00  0.00    +0.000 A 
ATOM     16  C   UNL     1      49.360   3.485  18.431  0.00  0.00    +0.000 A 
ENDBRANCH  10  11
ENDBRANCH   9  10
ENDBRANCH   8   9
ENDBRANCH   5   8
ENDBRANCH   1   2
BRANCH   1  19
ATOM     17  O   UNL     1      48.469   5.503  13.128  0.00  0.00    +0.000 OA
ATOM     18  C   UNL     1      47.815   6.535  13.008  0.00  0.00    +0.000 C 
ATOM     19  N   UNL     1      48.341   7.756  13.337  0.00  0.00    +0.000 N 
ATOM     20  H   UNL     1      47.811   8.607  13.190  0.00  0.00    +0.000 HD
BRANCH  18  21
ATOM     21  C   UNL     1      46.434   6.504  12.503  0.00  0.00    +0.000 A 
ATOM     22  C   UNL     1      45.892   7.660  11.955  0.00  0.00    +0.000 A 
ATOM     23  S   UNL     1      44.290   7.476  11.412  0.00  0.00    +0.000 S 
ATOM     24  C   UNL     1      44.262   5.851  11.903  0.00  0.00    +0.000 A 
ATOM     25  N   UNL     1      43.145   5.119  11.733  0.00  0.00    +0.000 NA
ATOM     26  C   UNL     1      43.276   3.866  12.171  0.00  0.00    +0.000 A 
ATOM     27  N   UNL     1      44.363   3.306  12.718  0.00  0.00    +0.000 NA
ATOM     28  C   UNL     1      45.436   4.087  12.856  0.00  0.00    +0.000 A 
ATOM     29  C   UNL     1      45.460   5.424  12.464  0.00  0.00    +0.000 A 
BRANCH  28  30
ATOM     30  O   UNL     1      46.499   3.446  13.426  0.00  0.00    +0.000 OA
ATOM     31  H   UNL     1      47.155   3.511  12.707  0.00  0.00    +0.000 HD
ENDBRANCH  28  30
ENDBRANCH  18  21
ENDBRANCH   1  19
TORSDOF 8
ENDMDL
MODEL 9
REMARK VINA RESULT:    -6.676      3.398      9.843
REMARK INTER + INTRA:         -10.727
REMARK INTER:                  -9.057
REMARK INTRA:                  -1.671
REMARK UNBOUND:                -1.124
REMARK  Name = 
REMARK  8 active torsions:
REMARK  status: ('A' for Active; 'I' for Inactive)
REMARK    1  A    between atoms: C_2  and  C_20
REMARK    2  A    between atoms: N_3  and  C_4
REMARK    3  A    between atoms: C_4  and  C_5
REMARK    4  A    between atoms: C_8  and  C_9
REMARK    5  A    between atoms: C_9  and  O_10
REMARK    6  A    between atoms: O_10  and  C_11
REMARK    7  A    between atoms: C_11  and  C_12
REMARK    8  A    between atoms: C_27  and  O_28
REMARK                            x       y       z     vdW  Elec       q    Type
REMARK                         _______ _______ _______ _____ _____    ______ ____
ROOT
ATOM      1  C   UNL     1      47.429   3.686  16.791  0.00  0.00    +0.000 C 
ENDROOT
BRANCH   1   2
ATOM      2  C   UNL     1      48.789   4.175  17.210  0.00  0.00    +0.000 A 
ATOM      3  C   UNL     1      49.124   5.531  17.102  0.00  0.00    +0.000 A 
ATOM      4  C   UNL     1      50.381   5.986  17.517  0.00  0.00    +0.000 A 
ATOM      5  C   UNL     1      51.331   5.093  18.032  0.00  0.00    +0.000 A 
ATOM      6  C   UNL     1      50.999   3.734  18.120  0.00  0.00    +0.000 A 
ATOM      7  C   UNL     1      49.745   3.279  17.705  0.00  0.00    +0.000 A 
BRANCH   5   8
ATOM      8  C   UNL     1      52.691   5.580  18.459  0.00  0.00    +0.000 C 
BRANCH   8   9
ATOM      9  O   UNL     1      52.538   6.598  19.441  0.00  0.00    +0.000 OA
BRANCH   9  10
ATOM     10  C   UNL     1      52.249   6.055  20.728  0.00  0.00    +0.000 C 
BRANCH  10  11
ATOM     11  C   UNL     1      50.766   6.113  20.997  0.00  0.00    +0.000 A 
ATOM     12  C   UNL     1      50.062   4.977  21.424  0.00  0.00    +0.000 A 
ATOM     13  C   UNL     1      48.700   5.050  21.717  0.00  0.00    +0.000 A 
ATOM     14  C   UNL     1      48.026   6.262  21.599  0.00  0.00    +0.000 A 
ATOM     15  C   UNL     1      48.712   7.403  21.184  0.00  0.00    +0.000 A 
ATOM     16  C   UNL     1      50.076   7.330  20.888  0.00  0.00    +0.000 A 
ENDBRANCH  10  11
ENDBRANCH   9  10
ENDBRANCH   8   9
ENDBRANCH   5   8
ENDBRANCH   1   2
BRANCH   1  19
ATOM     17  O   UNL     1      47.394   3.079  14.104  0.00  0.00    +0.000 OA
ATOM     18  C   UNL     1      46.868   4.131  14.454  0.00  0.00    +0.000 C 
ATOM     19  N   UNL     1      46.849   4.516  15.768  0.00  0.00    +0.000 N 
ATOM     20  H   UNL     1      46.454   5.409  16.042  0.00  0.00    +0.000 HD
BRANCH  18  21
ATOM     21  C   UNL     1      46.233   5.026  13.474  0.00  0.00    +0.000 A 
ATOM     22  C   UNL     1      46.602   6.365  13.448  0.00  0.00    +0.000 A 
ATOM     23  S   UNL     1      45.789   7.278  12.264  0.00  0.00    +0.000 S 
ATOM     24  C   UNL     1      44.907   5.919  11.758  0.00  0.00    +0.000 A 
ATOM     25  N   UNL     1      44.001   6.039  10.768  0.00  0.00    +0.000 NA
ATOM     26  C   UNL     1      43.388   4.888  10.486  0.00  0.00    +0.000 A 
ATOM     27  N   UNL     1      43.595   3.696  11.060  0.00  0.00    +0.000 NA
ATOM     28  C   UNL     1      44.506   3.647  12.033  0.00  0.00    +0.000 A 
ATOM     29  C   UNL     1      45.226   4.762  12.459  0.00  0.00    +0.000 A 
BRANCH  28  30
ATOM     30  O   UNL     1      44.655   2.400  12.570  0.00  0.00    +0.000 OA
ATOM     31  H   UNL     1      45.215   2.602  13.343  0.00  0.00    +0.000 HD
ENDBRANCH  28  30
ENDBRANCH  18  21
ENDBRANCH   1  19
TORSDOF 8
ENDMDL
