MODEL 1
REMARK VINA RESULT:    -8.305      0.000      0.000
REMARK INTER + INTRA:         -12.500
REMARK INTER:                 -11.703
REMARK INTRA:                  -0.797
REMARK UNBOUND:                -0.797
REMARK  Name = 
REMARK  8 active torsions:
REMARK  status: ('A' for Active; 'I' for Inactive)
REMARK    1  A    between atoms: C_1  and  N_2
REMARK    2  A    between atoms: N_2  and  C_3
REMARK    3  A    between atoms: N_2  and  C_24
REMARK    4  A    between atoms: C_3  and  C_4
REMARK    5  A    between atoms: C_7  and  C_8
REMARK    6  A    between atoms: C_8  and  N_9
REMARK    7  A    between atoms: C_10  and  C_12
REMARK    8  A    between atoms: C_24  and  C_25
REMARK                            x       y       z     vdW  Elec       q    Type
REMARK                         _______ _______ _______ _____ _____    ______ ____
ROOT
ATOM      1  C   UNL     1      44.522   5.355  10.852  0.00  0.00    +0.000 A 
ATOM      2  C   UNL     1      45.754   5.777  10.345  0.00  0.00    +0.000 A 
ATOM      3  C   UNL     1      46.593   6.564  11.123  0.00  0.00    +0.000 A 
ATOM      4  C   UNL     1      46.160   6.951  12.387  0.00  0.00    +0.000 A 
ATOM      5  N   UNL     1      44.965   6.562  12.905  0.00  0.00    +0.000 NA
ATOM      6  C   UNL     1      44.185   5.769  12.137  0.00  0.00    +0.000 A 
ENDROOT
BRANCH   1   7
ATOM      7  C   UNL     1      43.600   4.484  10.039  0.00  0.00    +0.000 C 
BRANCH   7   9
ATOM      8  C   UNL     1      43.594   2.475  11.424  0.00  0.00    +0.000 C 
ATOM      9  N   UNL     1      43.892   3.038  10.098  0.00  0.00    +0.000 NA
BRANCH   9  10
ATOM     10  C   UNL     1      45.315   2.769   9.792  0.00  0.00    +0.000 C 
BRANCH  10  11
ATOM     11  C   UNL     1      45.633   2.484   8.309  0.00  0.00    +0.000 C 
ATOM     12  C   UNL     1      46.529   1.246   8.141  0.00  0.00    +0.000 C 
ATOM     13  C   UNL     1      46.867   1.001   6.672  0.00  0.00    +0.000 C 
ATOM     14  C   UNL     1      47.498   2.231   6.027  0.00  0.00    +0.000 C 
ATOM     15  C   UNL     1      46.620   3.466   6.196  0.00  0.00    +0.000 C 
ATOM     16  C   UNL     1      46.285   3.718   7.664  0.00  0.00    +0.000 C 
ENDBRANCH  10  11
ENDBRANCH   9  10
ENDBRANCH   7   9
ENDBRANCH   1   7
BRANCH   4  17
ATOM     17  C   UNL     1      47.049   7.804  13.259  0.00  0.00    +0.000 C 
BRANCH  17  18
ATOM     18  N   UNL     1      47.452   7.109  14.461  0.00  0.00    +0.000 N 
ATOM     19  C   UNL     1      48.756   6.784  14.719  0.00  0.00    +0.000 C 
ATOM     20  O   UNL     1      49.666   7.082  13.949  0.00  0.00    +0.000 OA
ATOM     21  H   UNL     1      46.704   6.642  14.967  0.00  0.00    +0.000 HD
BRANCH  19  22
ATOM     22  C   UNL     1      49.028   6.129  16.005  0.00  0.00    +0.000 A 
ATOM     23  C   UNL     1      50.038   6.620  16.822  0.00  0.00    +0.000 A 
ATOM     24  S   UNL     1      50.202   5.774  18.294  0.00  0.00    +0.000 S 
ATOM     25  C   UNL     1      48.959   4.691  17.873  0.00  0.00    +0.000 A 
ATOM     26  N   UNL     1      48.607   3.675  18.706  0.00  0.00    +0.000 NA
ATOM     27  C   UNL     1      47.673   2.912  18.248  0.00  0.00    +0.000 A 
ATOM     28  N   UNL     1      47.052   3.077  17.039  0.00  0.00    +0.000 N 
ATOM     29  C   UNL     1      47.332   4.125  16.194  0.00  0.00    +0.000 A 
ATOM     30  O   UNL     1      46.686   4.303  15.168  0.00  0.00    +0.000 OA
ATOM     31  C   UNL     1      48.407   4.989  16.639  0.00  0.00    +0.000 A 
ATOM     32  H   UNL     1      46.309   2.460  16.746  0.00  0.00    +0.000 HD
ENDBRANCH  19  22
ENDBRANCH  17  18
ENDBRANCH   4  17
TORSDOF 7
ENDMDL
MODEL 2
REMARK VINA RESULT:    -8.176      1.966      2.601
REMARK INTER + INTRA:         -12.319
REMARK INTER:                 -11.368
REMARK INTRA:                  -0.951
REMARK UNBOUND:                -0.797
REMARK  Name = 
REMARK  8 active torsions:
REMARK  status: ('A' for Active; 'I' for Inactive)
REMARK    1  A    between atoms: C_1  and  N_2
REMARK    2  A    between atoms: N_2  and  C_3
REMARK    3  A    between atoms: N_2  and  C_24
REMARK    4  A    between atoms: C_3  and  C_4
REMARK    5  A    between atoms: C_7  and  C_8
REMARK    6  A    between atoms: C_8  and  N_9
REMARK    7  A    between atoms: C_10  and  C_12
REMARK    8  A    between atoms: C_24  and  C_25
REMARK                            x       y       z     vdW  Elec       q    Type
REMARK                         _______ _______ _______ _____ _____    ______ ____
ROOT
ATOM      1  C   UNL     1      46.079   4.393  12.711  0.00  0.00    +0.000 A 
ATOM      2  C   UNL     1      46.208   5.633  12.078  0.00  0.00    +0.000 A 
ATOM      3  C   UNL     1      47.067   6.592  12.598  0.00  0.00    +0.000 A 
ATOM      4  C   UNL     1      47.754   6.305  13.773  0.00  0.00    +0.000 A 
ATOM      5  N   UNL     1      47.645   5.111  14.414  0.00  0.00    +0.000 NA
ATOM      6  C   UNL     1      46.826   4.185  13.865  0.00  0.00    +0.000 A 
ENDROOT
BRANCH   1   7
ATOM      7  C   UNL     1      45.170   3.326  12.159  0.00  0.00    +0.000 C 
BRANCH   7   9
ATOM      8  C   UNL     1      42.943   3.998  11.420  0.00  0.00    +0.000 C 
ATOM      9  N   UNL     1      44.334   3.747  11.016  0.00  0.00    +0.000 NA
BRANCH   9  10
ATOM     10  C   UNL     1      44.327   2.717   9.954  0.00  0.00    +0.000 C 
BRANCH  10  11
ATOM     11  C   UNL     1      45.566   2.703   9.033  0.00  0.00    +0.000 C 
ATOM     12  C   UNL     1      45.489   3.790   7.948  0.00  0.00    +0.000 C 
ATOM     13  C   UNL     1      46.702   3.738   7.022  0.00  0.00    +0.000 C 
ATOM     14  C   UNL     1      46.880   2.353   6.406  0.00  0.00    +0.000 C 
ATOM     15  C   UNL     1      46.949   1.269   7.475  0.00  0.00    +0.000 C 
ATOM     16  C   UNL     1      45.735   1.314   8.399  0.00  0.00    +0.000 C 
ENDBRANCH  10  11
ENDBRANCH   9  10
ENDBRANCH   7   9
ENDBRANCH   1   7
BRANCH   4  17
ATOM     17  C   UNL     1      48.698   7.323  14.363  0.00  0.00    +0.000 C 
BRANCH  17  18
ATOM     18  N   UNL     1      48.624   7.356  15.807  0.00  0.00    +0.000 N 
ATOM     19  C   UNL     1      49.565   6.762  16.603  0.00  0.00    +0.000 C 
ATOM     20  O   UNL     1      50.541   6.179  16.136  0.00  0.00    +0.000 OA
ATOM     21  H   UNL     1      47.716   7.602  16.191  0.00  0.00    +0.000 HD
BRANCH  19  22
ATOM     22  C   UNL     1      49.394   6.922  18.053  0.00  0.00    +0.000 A 
ATOM     23  C   UNL     1      49.557   8.177  18.627  0.00  0.00    +0.000 A 
ATOM     24  S   UNL     1      49.287   8.202  20.310  0.00  0.00    +0.000 S 
ATOM     25  C   UNL     1      48.987   6.528  20.342  0.00  0.00    +0.000 A 
ATOM     26  N   UNL     1      48.711   5.891  21.512  0.00  0.00    +0.000 NA
ATOM     27  C   UNL     1      48.535   4.618  21.395  0.00  0.00    +0.000 A 
ATOM     28  N   UNL     1      48.600   3.926  20.215  0.00  0.00    +0.000 N 
ATOM     29  C   UNL     1      48.814   4.537  19.003  0.00  0.00    +0.000 A 
ATOM     30  O   UNL     1      48.762   3.903  17.955  0.00  0.00    +0.000 OA
ATOM     31  C   UNL     1      49.062   5.963  19.081  0.00  0.00    +0.000 A 
ATOM     32  H   UNL     1      48.428   2.932  20.185  0.00  0.00    +0.000 HD
ENDBRANCH  19  22
ENDBRANCH  17  18
ENDBRANCH   4  17
TORSDOF 7
ENDMDL
MODEL 3
REMARK VINA RESULT:    -8.076      2.627      3.403
REMARK INTER + INTRA:         -12.178
REMARK INTER:                 -11.132
REMARK INTRA:                  -1.046
REMARK UNBOUND:                -0.797
REMARK  Name = 
REMARK  8 active torsions:
REMARK  status: ('A' for Active; 'I' for Inactive)
REMARK    1  A    between atoms: C_1  and  N_2
REMARK    2  A    between atoms: N_2  and  C_3
REMARK    3  A    between atoms: N_2  and  C_24
REMARK    4  A    between atoms: C_3  and  C_4
REMARK    5  A    between atoms: C_7  and  C_8
REMARK    6  A    between atoms: C_8  and  N_9
REMARK    7  A    between atoms: C_10  and  C_12
REMARK    8  A    between atoms: C_24  and  C_25
REMARK                            x       y       z     vdW  Elec       q    Type
REMARK                         _______ _______ _______ _____ _____    ______ ____
ROOT
ATOM      1  C   UNL     1      46.523   4.854  13.192  0.00  0.00    +0.000 A 
ATOM      2  C   UNL     1      47.054   6.059  12.723  0.00  0.00    +0.000 A 
ATOM      3  C   UNL     1      47.932   6.786  13.517  0.00  0.00    +0.000 A 
ATOM      4  C   UNL     1      48.229   6.310  14.790  0.00  0.00    +0.000 A 
ATOM      5  N   UNL     1      47.724   5.146  15.275  0.00  0.00    +0.000 NA
ATOM      6  C   UNL     1      46.899   4.443  14.467  0.00  0.00    +0.000 A 
ENDROOT
BRANCH   1   7
ATOM      7  C   UNL     1      45.584   4.033  12.346  0.00  0.00    +0.000 C 
BRANCH   7   9
ATOM      8  C   UNL     1      43.217   4.453  12.766  0.00  0.00    +0.000 C 
ATOM      9  N   UNL     1      44.368   4.741  11.897  0.00  0.00    +0.000 NA
BRANCH   9  10
ATOM     10  C   UNL     1      44.008   4.357  10.514  0.00  0.00    +0.000 C 
BRANCH  10  11
ATOM     11  C   UNL     1      45.146   3.726   9.682  0.00  0.00    +0.000 C 
ATOM     12  C   UNL     1      45.506   4.583   8.457  0.00  0.00    +0.000 C 
ATOM     13  C   UNL     1      46.605   3.927   7.624  0.00  0.00    +0.000 C 
ATOM     14  C   UNL     1      46.226   2.507   7.213  0.00  0.00    +0.000 C 
ATOM     15  C   UNL     1      45.860   1.652   8.421  0.00  0.00    +0.000 C 
ATOM     16  C   UNL     1      44.757   2.303   9.253  0.00  0.00    +0.000 C 
ENDBRANCH  10  11
ENDBRANCH   9  10
ENDBRANCH   7   9
ENDBRANCH   1   7
BRANCH   4  17
ATOM     17  C   UNL     1      49.182   7.075  15.676  0.00  0.00    +0.000 C 
BRANCH  17  18
ATOM     18  N   UNL     1      50.212   6.221  16.224  0.00  0.00    +0.000 N 
ATOM     19  C   UNL     1      50.190   5.782  17.520  0.00  0.00    +0.000 C 
ATOM     20  O   UNL     1      49.279   6.075  18.291  0.00  0.00    +0.000 OA
ATOM     21  H   UNL     1      51.077   6.184  15.691  0.00  0.00    +0.000 HD
BRANCH  19  22
ATOM     22  C   UNL     1      51.271   4.875  17.926  0.00  0.00    +0.000 A 
ATOM     23  C   UNL     1      52.395   5.390  18.557  0.00  0.00    +0.000 A 
ATOM     24  S   UNL     1      53.539   4.205  18.998  0.00  0.00    +0.000 S 
ATOM     25  C   UNL     1      52.593   2.963  18.321  0.00  0.00    +0.000 A 
ATOM     26  N   UNL     1      53.022   1.672  18.338  0.00  0.00    +0.000 NA
ATOM     27  C   UNL     1      52.222   0.839  17.762  0.00  0.00    +0.000 A 
ATOM     28  N   UNL     1      51.029   1.177  17.181  0.00  0.00    +0.000 N 
ATOM     29  C   UNL     1      50.528   2.457  17.197  0.00  0.00    +0.000 A 
ATOM     30  O   UNL     1      49.410   2.706  16.760  0.00  0.00    +0.000 OA
ATOM     31  C   UNL     1      51.408   3.443  17.792  0.00  0.00    +0.000 A 
ATOM     32  H   UNL     1      50.434   0.475  16.768  0.00  0.00    +0.000 HD
ENDBRANCH  19  22
ENDBRANCH  17  18
ENDBRANCH   4  17
TORSDOF 7
ENDMDL
MODEL 4
REMARK VINA RESULT:    -7.729      2.585      3.197
REMARK INTER + INTRA:         -11.688
REMARK INTER:                 -11.086
REMARK INTRA:                  -0.602
REMARK UNBOUND:                -0.797
REMARK  Name = 
REMARK  8 active torsions:
REMARK  status: ('A' for Active; 'I' for Inactive)
REMARK    1  A    between atoms: C_1  and  N_2
REMARK    2  A    between atoms: N_2  and  C_3
REMARK    3  A    between atoms: N_2  and  C_24
REMARK    4  A    between atoms: C_3  and  C_4
REMARK    5  A    between atoms: C_7  and  C_8
REMARK    6  A    between atoms: C_8  and  N_9
REMARK    7  A    between atoms: C_10  and  C_12
REMARK    8  A    between atoms: C_24  and  C_25
REMARK                            x       y       z     vdW  Elec       q    Type
REMARK                         _______ _______ _______ _____ _____    ______ ____
ROOT
ATOM      1  C   UNL     1      45.756   4.262  12.656  0.00  0.00    +0.000 A 
ATOM      2  C   UNL     1      45.745   5.655  12.550  0.00  0.00    +0.000 A 
ATOM      3  C   UNL     1      46.646   6.415  13.286  0.00  0.00    +0.000 A 
ATOM      4  C   UNL     1      47.517   5.762  14.151  0.00  0.00    +0.000 A 
ATOM      5  N   UNL     1      47.547   4.410  14.281  0.00  0.00    +0.000 NA
ATOM      6  C   UNL     1      46.681   3.695  13.527  0.00  0.00    +0.000 A 
ENDROOT
BRANCH   1   7
ATOM      7  C   UNL     1      44.805   3.411  11.856  0.00  0.00    +0.000 C 
BRANCH   7   9
ATOM      8  C   UNL     1      43.554   4.780  10.270  0.00  0.00    +0.000 C 
ATOM      9  N   UNL     1      44.645   3.811  10.443  0.00  0.00    +0.000 NA
BRANCH   9  10
ATOM     10  C   UNL     1      44.360   2.639   9.586  0.00  0.00    +0.000 C 
BRANCH  10  11
ATOM     11  C   UNL     1      45.192   2.546   8.289  0.00  0.00    +0.000 C 
ATOM     12  C   UNL     1      46.161   1.352   8.311  0.00  0.00    +0.000 C 
ATOM     13  C   UNL     1      47.003   1.296   7.038  0.00  0.00    +0.000 C 
ATOM     14  C   UNL     1      47.746   2.607   6.799  0.00  0.00    +0.000 C 
ATOM     15  C   UNL     1      46.794   3.797   6.784  0.00  0.00    +0.000 C 
ATOM     16  C   UNL     1      45.955   3.859   8.058  0.00  0.00    +0.000 C 
ENDBRANCH  10  11
ENDBRANCH   9  10
ENDBRANCH   7   9
ENDBRANCH   1   7
BRANCH   4  17
ATOM     17  C   UNL     1      48.510   6.558  14.962  0.00  0.00    +0.000 C 
BRANCH  17  18
ATOM     18  N   UNL     1      48.296   6.399  16.384  0.00  0.00    +0.000 N 
ATOM     19  C   UNL     1      49.194   5.757  17.193  0.00  0.00    +0.000 C 
ATOM     20  O   UNL     1      50.246   5.292  16.760  0.00  0.00    +0.000 OA
ATOM     21  H   UNL     1      47.342   6.545  16.701  0.00  0.00    +0.000 HD
BRANCH  19  22
ATOM     22  C   UNL     1      48.876   5.718  18.627  0.00  0.00    +0.000 A 
ATOM     23  C   UNL     1      49.095   4.550  19.344  0.00  0.00    +0.000 A 
ATOM     24  S   UNL     1      48.712   4.679  21.001  0.00  0.00    +0.000 S 
ATOM     25  C   UNL     1      48.196   6.290  20.811  0.00  0.00    +0.000 A 
ATOM     26  N   UNL     1      47.709   6.995  21.868  0.00  0.00    +0.000 NA
ATOM     27  C   UNL     1      47.326   8.192  21.575  0.00  0.00    +0.000 A 
ATOM     28  N   UNL     1      47.394   8.751  20.327  0.00  0.00    +0.000 N 
ATOM     29  C   UNL     1      47.936   8.097  19.246  0.00  0.00    +0.000 A 
ATOM     30  O   UNL     1      48.077   8.664  18.168  0.00  0.00    +0.000 OA
ATOM     31  C   UNL     1      48.342   6.731  19.508  0.00  0.00    +0.000 A 
ATOM     32  H   UNL     1      47.100   9.703  20.166  0.00  0.00    +0.000 HD
ENDBRANCH  19  22
ENDBRANCH  17  18
ENDBRANCH   4  17
TORSDOF 7
ENDMDL
MODEL 5
REMARK VINA RESULT:    -7.552      2.216      2.731
REMARK INTER + INTRA:         -11.439
REMARK INTER:                 -10.338
REMARK INTRA:                  -1.101
REMARK UNBOUND:                -0.797
REMARK  Name = 
REMARK  8 active torsions:
REMARK  status: ('A' for Active; 'I' for Inactive)
REMARK    1  A    between atoms: C_1  and  N_2
REMARK    2  A    between atoms: N_2  and  C_3
REMARK    3  A    between atoms: N_2  and  C_24
REMARK    4  A    between atoms: C_3  and  C_4
REMARK    5  A    between atoms: C_7  and  C_8
REMARK    6  A    between atoms: C_8  and  N_9
REMARK    7  A    between atoms: C_10  and  C_12
REMARK    8  A    between atoms: C_24  and  C_25
REMARK                            x       y       z     vdW  Elec       q    Type
REMARK                         _______ _______ _______ _____ _____    ______ ____
ROOT
ATOM      1  C   UNL     1      46.155   5.116  12.360  0.00  0.00    +0.000 A 
ATOM      2  C   UNL     1      46.404   6.223  11.545  0.00  0.00    +0.000 A 
ATOM      3  C   UNL     1      47.397   7.131  11.891  0.00  0.00    +0.000 A 
ATOM      4  C   UNL     1      48.097   6.932  13.077  0.00  0.00    +0.000 A 
ATOM      5  N   UNL     1      47.872   5.869  13.892  0.00  0.00    +0.000 NA
ATOM      6  C   UNL     1      46.923   4.984  13.512  0.00  0.00    +0.000 A 
ENDROOT
BRANCH   1   7
ATOM      7  C   UNL     1      45.097   4.104  11.999  0.00  0.00    +0.000 C 
BRANCH   7   9
ATOM      8  C   UNL     1      43.144   4.997  10.840  0.00  0.00    +0.000 C 
ATOM      9  N   UNL     1      44.442   4.323  10.694  0.00  0.00    +0.000 NA
BRANCH   9  10
ATOM     10  C   UNL     1      44.219   3.041   9.989  0.00  0.00    +0.000 C 
BRANCH  10  11
ATOM     11  C   UNL     1      44.969   2.879   8.649  0.00  0.00    +0.000 C 
ATOM     12  C   UNL     1      45.834   1.609   8.623  0.00  0.00    +0.000 C 
ATOM     13  C   UNL     1      46.599   1.484   7.307  0.00  0.00    +0.000 C 
ATOM     14  C   UNL     1      47.435   2.728   7.023  0.00  0.00    +0.000 C 
ATOM     15  C   UNL     1      46.586   3.994   7.055  0.00  0.00    +0.000 C 
ATOM     16  C   UNL     1      45.825   4.125   8.372  0.00  0.00    +0.000 C 
ENDBRANCH  10  11
ENDBRANCH   9  10
ENDBRANCH   7   9
ENDBRANCH   1   7
BRANCH   4  17
ATOM     17  C   UNL     1      49.184   7.897  13.480  0.00  0.00    +0.000 C 
BRANCH  17  18
ATOM     18  N   UNL     1      50.256   7.236  14.190  0.00  0.00    +0.000 N 
ATOM     19  C   UNL     1      50.618   7.584  15.463  0.00  0.00    +0.000 C 
ATOM     20  O   UNL     1      50.038   8.471  16.086  0.00  0.00    +0.000 OA
ATOM     21  H   UNL     1      50.894   6.695  13.612  0.00  0.00    +0.000 HD
BRANCH  19  22
ATOM     22  C   UNL     1      51.687   6.791  16.083  0.00  0.00    +0.000 A 
ATOM     23  C   UNL     1      53.013   7.132  15.852  0.00  0.00    +0.000 A 
ATOM     24  S   UNL     1      54.130   6.139  16.673  0.00  0.00    +0.000 S 
ATOM     25  C   UNL     1      52.883   5.188  17.332  0.00  0.00    +0.000 A 
ATOM     26  N   UNL     1      53.166   4.122  18.129  0.00  0.00    +0.000 NA
ATOM     27  C   UNL     1      52.127   3.472  18.534  0.00  0.00    +0.000 A 
ATOM     28  N   UNL     1      50.833   3.794  18.222  0.00  0.00    +0.000 N 
ATOM     29  C   UNL     1      50.500   4.897  17.472  0.00  0.00    +0.000 A 
ATOM     30  O   UNL     1      49.328   5.216  17.300  0.00  0.00    +0.000 OA
ATOM     31  C   UNL     1      51.631   5.640  16.954  0.00  0.00    +0.000 A 
ATOM     32  H   UNL     1      50.061   3.259  18.590  0.00  0.00    +0.000 HD
ENDBRANCH  19  22
ENDBRANCH  17  18
ENDBRANCH   4  17
TORSDOF 7
ENDMDL
MODEL 6
REMARK VINA RESULT:    -7.494      2.859      8.394
REMARK INTER + INTRA:         -11.357
REMARK INTER:                  -9.848
REMARK INTRA:                  -1.509
REMARK UNBOUND:                -0.797
REMARK  Name = 
REMARK  8 active torsions:
REMARK  status: ('A' for Active; 'I' for Inactive)
REMARK    1  A    between atoms: C_1  and  N_2
REMARK    2  A    between atoms: N_2  and  C_3
REMARK    3  A    between atoms: N_2  and  C_24
REMARK    4  A    between atoms: C_3  and  C_4
REMARK    5  A    between atoms: C_7  and  C_8
REMARK    6  A    between atoms: C_8  and  N_9
REMARK    7  A    between atoms: C_10  and  C_12
REMARK    8  A    between atoms: C_24  and  C_25
REMARK                            x       y       z     vdW  Elec       q    Type
REMARK                         _______ _______ _______ _____ _____    ______ ____
ROOT
ATOM      1  C   UNL     1      49.209   7.646  16.389  0.00  0.00    +0.000 A 
ATOM      2  C   UNL     1      48.662   8.817  15.857  0.00  0.00    +0.000 A 
ATOM      3  C   UNL     1      48.178   8.827  14.554  0.00  0.00    +0.000 A 
ATOM      4  C   UNL     1      48.291   7.668  13.793  0.00  0.00    +0.000 A 
ATOM      5  N   UNL     1      48.824   6.518  14.281  0.00  0.00    +0.000 NA
ATOM      6  C   UNL     1      49.255   6.529  15.563  0.00  0.00    +0.000 A 
ENDROOT
BRANCH   1   7
ATOM      7  C   UNL     1      49.724   7.600  17.805  0.00  0.00    +0.000 C 
BRANCH   7   9
ATOM      8  C   UNL     1      48.383   7.966  19.811  0.00  0.00    +0.000 C 
ATOM      9  N   UNL     1      48.800   6.997  18.786  0.00  0.00    +0.000 NA
BRANCH   9  10
ATOM     10  C   UNL     1      49.428   5.844  19.470  0.00  0.00    +0.000 C 
BRANCH  10  11
ATOM     11  C   UNL     1      49.075   4.456  18.894  0.00  0.00    +0.000 C 
ATOM     12  C   UNL     1      50.179   3.920  17.968  0.00  0.00    +0.000 C 
ATOM     13  C   UNL     1      49.798   2.565  17.375  0.00  0.00    +0.000 C 
ATOM     14  C   UNL     1      48.454   2.625  16.656  0.00  0.00    +0.000 C 
ATOM     15  C   UNL     1      47.355   3.163  17.564  0.00  0.00    +0.000 C 
ATOM     16  C   UNL     1      47.730   4.521  18.154  0.00  0.00    +0.000 C 
ENDBRANCH  10  11
ENDBRANCH   9  10
ENDBRANCH   7   9
ENDBRANCH   1   7
BRANCH   4  17
ATOM     17  C   UNL     1      47.772   7.644  12.376  0.00  0.00    +0.000 C 
BRANCH  17  18
ATOM     18  N   UNL     1      47.018   6.442  12.098  0.00  0.00    +0.000 N 
ATOM     19  C   UNL     1      45.651   6.405  12.151  0.00  0.00    +0.000 C 
ATOM     20  O   UNL     1      44.982   7.399  12.423  0.00  0.00    +0.000 OA
ATOM     21  H   UNL     1      47.550   5.577  12.125  0.00  0.00    +0.000 HD
BRANCH  19  22
ATOM     22  C   UNL     1      45.014   5.132  11.790  0.00  0.00    +0.000 A 
ATOM     23  C   UNL     1      44.289   4.434  12.747  0.00  0.00    +0.000 A 
ATOM     24  S   UNL     1      43.581   2.998  12.160  0.00  0.00    +0.000 S 
ATOM     25  C   UNL     1      44.256   3.232  10.616  0.00  0.00    +0.000 A 
ATOM     26  N   UNL     1      44.054   2.325   9.622  0.00  0.00    +0.000 NA
ATOM     27  C   UNL     1      44.649   2.612   8.513  0.00  0.00    +0.000 A 
ATOM     28  N   UNL     1      45.419   3.726   8.305  0.00  0.00    +0.000 N 
ATOM     29  C   UNL     1      45.597   4.698   9.260  0.00  0.00    +0.000 A 
ATOM     30  O   UNL     1      46.205   5.732   9.007  0.00  0.00    +0.000 OA
ATOM     31  C   UNL     1      44.986   4.405  10.542  0.00  0.00    +0.000 A 
ATOM     32  H   UNL     1      45.839   3.907   7.406  0.00  0.00    +0.000 HD
ENDBRANCH  19  22
ENDBRANCH  17  18
ENDBRANCH   4  17
TORSDOF 7
ENDMDL
MODEL 7
REMARK VINA RESULT:    -7.460      3.213      8.035
REMARK INTER + INTRA:         -11.309
REMARK INTER:                  -9.623
REMARK INTRA:                  -1.687
REMARK UNBOUND:                -0.797
REMARK  Name = 
REMARK  8 active torsions:
REMARK  status: ('A' for Active; 'I' for Inactive)
REMARK    1  A    between atoms: C_1  and  N_2
REMARK    2  A    between atoms: N_2  and  C_3
REMARK    3  A    between atoms: N_2  and  C_24
REMARK    4  A    between atoms: C_3  and  C_4
REMARK    5  A    between atoms: C_7  and  C_8
REMARK    6  A    between atoms: C_8  and  N_9
REMARK    7  A    between atoms: C_10  and  C_12
REMARK    8  A    between atoms: C_24  and  C_25
REMARK                            x       y       z     vdW  Elec       q    Type
REMARK                         _______ _______ _______ _____ _____    ______ ____
ROOT
ATOM      1  C   UNL     1      49.030   7.713  16.317  0.00  0.00    +0.000 A 
ATOM      2  C   UNL     1      48.853   6.571  15.531  0.00  0.00    +0.000 A 
ATOM      3  C   UNL     1      48.557   6.697  14.180  0.00  0.00    +0.000 A 
ATOM      4  C   UNL     1      48.403   7.973  13.648  0.00  0.00    +0.000 A 
ATOM      5  N   UNL     1      48.563   9.102  14.388  0.00  0.00    +0.000 NA
ATOM      6  C   UNL     1      48.884   8.947  15.693  0.00  0.00    +0.000 A 
ENDROOT
BRANCH   1   7
ATOM      7  C   UNL     1      49.370   7.607  17.782  0.00  0.00    +0.000 C 
BRANCH   7   9
ATOM      8  C   UNL     1      47.695   7.688  19.554  0.00  0.00    +0.000 C 
ATOM      9  N   UNL     1      48.408   6.835  18.592  0.00  0.00    +0.000 NA
BRANCH   9  10
ATOM     10  C   UNL     1      49.090   5.760  19.347  0.00  0.00    +0.000 C 
BRANCH  10  11
ATOM     11  C   UNL     1      48.911   4.334  18.782  0.00  0.00    +0.000 C 
ATOM     12  C   UNL     1      50.111   3.902  17.923  0.00  0.00    +0.000 C 
ATOM     13  C   UNL     1      49.902   2.506  17.339  0.00  0.00    +0.000 C 
ATOM     14  C   UNL     1      48.598   2.415  16.553  0.00  0.00    +0.000 C 
ATOM     15  C   UNL     1      47.404   2.850  17.395  0.00  0.00    +0.000 C 
ATOM     16  C   UNL     1      47.606   4.248  17.975  0.00  0.00    +0.000 C 
ENDBRANCH  10  11
ENDBRANCH   9  10
ENDBRANCH   7   9
ENDBRANCH   1   7
BRANCH   4  17
ATOM     17  C   UNL     1      48.086   8.145  12.183  0.00  0.00    +0.000 C 
BRANCH  17  18
ATOM     18  N   UNL     1      47.422   6.984  11.634  0.00  0.00    +0.000 N 
ATOM     19  C   UNL     1      46.073   6.949  11.406  0.00  0.00    +0.000 C 
ATOM     20  O   UNL     1      45.348   7.913  11.639  0.00  0.00    +0.000 OA
ATOM     21  H   UNL     1      47.952   6.118  11.678  0.00  0.00    +0.000 HD
BRANCH  19  22
ATOM     22  C   UNL     1      45.542   5.725  10.792  0.00  0.00    +0.000 A 
ATOM     23  C   UNL     1      45.758   5.488   9.441  0.00  0.00    +0.000 A 
ATOM     24  S   UNL     1      45.112   4.009   8.892  0.00  0.00    +0.000 S 
ATOM     25  C   UNL     1      44.480   3.651  10.431  0.00  0.00    +0.000 A 
ATOM     26  N   UNL     1      43.770   2.511  10.645  0.00  0.00    +0.000 NA
ATOM     27  C   UNL     1      43.324   2.382  11.849  0.00  0.00    +0.000 A 
ATOM     28  N   UNL     1      43.530   3.283  12.859  0.00  0.00    +0.000 N 
ATOM     29  C   UNL     1      44.293   4.416  12.704  0.00  0.00    +0.000 A 
ATOM     30  O   UNL     1      44.545   5.146  13.655  0.00  0.00    +0.000 OA
ATOM     31  C   UNL     1      44.783   4.633  11.357  0.00  0.00    +0.000 A 
ATOM     32  H   UNL     1      43.175   3.113  13.789  0.00  0.00    +0.000 HD
ENDBRANCH  19  22
ENDBRANCH  17  18
ENDBRANCH   4  17
TORSDOF 7
ENDMDL
MODEL 8
REMARK VINA RESULT:    -6.703      3.709      9.785
REMARK INTER + INTRA:         -10.243
REMARK INTER:                  -8.814
REMARK INTRA:                  -1.429
REMARK UNBOUND:                -0.797
REMARK  Name = 
REMARK  8 active torsions:
REMARK  status: ('A' for Active; 'I' for Inactive)
REMARK    1  A    between atoms: C_1  and  N_2
REMARK    2  A    between atoms: N_2  and  C_3
REMARK    3  A    between atoms: N_2  and  C_24
REMARK    4  A    between atoms: C_3  and  C_4
REMARK    5  A    between atoms: C_7  and  C_8
REMARK    6  A    between atoms: C_8  and  N_9
REMARK    7  A    between atoms: C_10  and  C_12
REMARK    8  A    between atoms: C_24  and  C_25
REMARK                            x       y       z     vdW  Elec       q    Type
REMARK                         _______ _______ _______ _____ _____    ______ ____
ROOT
ATOM      1  C   UNL     1      51.474   4.089  17.667  0.00  0.00    +0.000 A 
ATOM      2  C   UNL     1      50.626   5.198  17.604  0.00  0.00    +0.000 A 
ATOM      3  C   UNL     1      49.279   5.025  17.308  0.00  0.00    +0.000 A 
ATOM      4  C   UNL     1      48.816   3.742  17.038  0.00  0.00    +0.000 A 
ATOM      5  N   UNL     1      49.618   2.646  17.086  0.00  0.00    +0.000 NA
ATOM      6  C   UNL     1      50.916   2.841  17.410  0.00  0.00    +0.000 A 
ENDROOT
BRANCH   1   7
ATOM      7  C   UNL     1      52.935   4.243  18.005  0.00  0.00    +0.000 C 
BRANCH   7   9
ATOM      8  C   UNL     1      54.562   5.447  16.641  0.00  0.00    +0.000 C 
ATOM      9  N   UNL     1      53.518   5.558  17.670  0.00  0.00    +0.000 NA
BRANCH   9  10
ATOM     10  C   UNL     1      54.115   6.196  18.865  0.00  0.00    +0.000 C 
BRANCH  10  11
ATOM     11  C   UNL     1      53.222   7.231  19.582  0.00  0.00    +0.000 C 
ATOM     12  C   UNL     1      52.240   6.565  20.560  0.00  0.00    +0.000 C 
ATOM     13  C   UNL     1      51.338   7.598  21.232  0.00  0.00    +0.000 C 
ATOM     14  C   UNL     1      50.602   8.453  20.205  0.00  0.00    +0.000 C 
ATOM     15  C   UNL     1      51.568   9.111  19.227  0.00  0.00    +0.000 C 
ATOM     16  C   UNL     1      52.467   8.080  18.548  0.00  0.00    +0.000 C 
ENDBRANCH  10  11
ENDBRANCH   9  10
ENDBRANCH   7   9
ENDBRANCH   1   7
BRANCH   4  17
ATOM     17  C   UNL     1      47.358   3.520  16.717  0.00  0.00    +0.000 C 
BRANCH  17  18
ATOM     18  N   UNL     1      46.868   4.471  15.745  0.00  0.00    +0.000 N 
ATOM     19  C   UNL     1      46.866   4.211  14.401  0.00  0.00    +0.000 C 
ATOM     20  O   UNL     1      47.266   3.143  13.943  0.00  0.00    +0.000 OA
ATOM     21  H   UNL     1      46.779   5.427  16.076  0.00  0.00    +0.000 HD
BRANCH  19  22
ATOM     22  C   UNL     1      46.288   5.244  13.532  0.00  0.00    +0.000 A 
ATOM     23  C   UNL     1      46.975   6.434  13.334  0.00  0.00    +0.000 A 
ATOM     24  S   UNL     1      46.191   7.512  12.271  0.00  0.00    +0.000 S 
ATOM     25  C   UNL     1      44.879   6.445  12.072  0.00  0.00    +0.000 A 
ATOM     26  N   UNL     1      43.820   6.781  11.286  0.00  0.00    +0.000 NA
ATOM     27  C   UNL     1      42.884   5.894  11.250  0.00  0.00    +0.000 A 
ATOM     28  N   UNL     1      42.913   4.700  11.919  0.00  0.00    +0.000 N 
ATOM     29  C   UNL     1      43.989   4.293  12.672  0.00  0.00    +0.000 A 
ATOM     30  O   UNL     1      44.027   3.174  13.172  0.00  0.00    +0.000 OA
ATOM     31  C   UNL     1      45.053   5.271  12.783  0.00  0.00    +0.000 A 
ATOM     32  H   UNL     1      42.159   4.035  11.831  0.00  0.00    +0.000 HD
ENDBRANCH  19  22
ENDBRANCH  17  18
ENDBRANCH   4  17
TORSDOF 7
ENDMDL
MODEL 9
REMARK VINA RESULT:    -6.600      3.691      8.456
REMARK INTER + INTRA:         -10.098
REMARK INTER:                  -8.347
REMARK INTRA:                  -1.751
REMARK UNBOUND:                -0.797
REMARK  Name = 
REMARK  8 active torsions:
REMARK  status: ('A' for Active; 'I' for Inactive)
REMARK    1  A    between atoms: C_1  and  N_2
REMARK    2  A    between atoms: N_2  and  C_3
REMARK    3  A    between atoms: N_2  and  C_24
REMARK    4  A    between atoms: C_3  and  C_4
REMARK    5  A    between atoms: C_7  and  C_8
REMARK    6  A    between atoms: C_8  and  N_9
REMARK    7  A    between atoms: C_10  and  C_12
REMARK    8  A    between atoms: C_24  and  C_25
REMARK                            x       y       z     vdW  Elec       q    Type
REMARK                         _______ _______ _______ _____ _____    ______ ____
ROOT
ATOM      1  C   UNL     1      50.070   7.412  18.208  0.00  0.00    +0.000 A 
ATOM      2  C   UNL     1      50.698   6.905  17.067  0.00  0.00    +0.000 A 
ATOM      3  C   UNL     1      50.230   7.251  15.805  0.00  0.00    +0.000 A 
ATOM      4  C   UNL     1      49.109   8.069  15.711  0.00  0.00    +0.000 A 
ATOM      5  N   UNL     1      48.474   8.571  16.803  0.00  0.00    +0.000 NA
ATOM      6  C   UNL     1      48.972   8.245  18.016  0.00  0.00    +0.000 A 
ENDROOT
BRANCH   1   7
ATOM      7  C   UNL     1      50.567   7.070  19.589  0.00  0.00    +0.000 C 
BRANCH   7   9
ATOM      8  C   UNL     1      49.714   6.653  21.837  0.00  0.00    +0.000 C 
ATOM      9  N   UNL     1      49.626   6.287  20.415  0.00  0.00    +0.000 NA
BRANCH   9  10
ATOM     10  C   UNL     1      49.893   4.836  20.296  0.00  0.00    +0.000 C 
BRANCH  10  11
ATOM     11  C   UNL     1      49.020   4.082  19.270  0.00  0.00    +0.000 C 
ATOM     12  C   UNL     1      49.848   3.561  18.084  0.00  0.00    +0.000 C 
ATOM     13  C   UNL     1      48.965   2.852  17.059  0.00  0.00    +0.000 C 
ATOM     14  C   UNL     1      47.824   3.747  16.586  0.00  0.00    +0.000 C 
ATOM     15  C   UNL     1      47.002   4.275  17.756  0.00  0.00    +0.000 C 
ATOM     16  C   UNL     1      47.881   4.990  18.780  0.00  0.00    +0.000 C 
ENDBRANCH  10  11
ENDBRANCH   9  10
ENDBRANCH   7   9
ENDBRANCH   1   7
BRANCH   4  17
ATOM     17  C   UNL     1      48.578   8.466  14.356  0.00  0.00    +0.000 C 
BRANCH  17  18
ATOM     18  N   UNL     1      47.506   7.598  13.921  0.00  0.00    +0.000 N 
ATOM     19  C   UNL     1      47.729   6.482  13.161  0.00  0.00    +0.000 C 
ATOM     20  O   UNL     1      48.859   6.143  12.817  0.00  0.00    +0.000 OA
ATOM     21  H   UNL     1      46.573   7.996  13.976  0.00  0.00    +0.000 HD
BRANCH  19  22
ATOM     22  C   UNL     1      46.554   5.662  12.838  0.00  0.00    +0.000 A 
ATOM     23  C   UNL     1      46.587   4.295  13.081  0.00  0.00    +0.000 A 
ATOM     24  S   UNL     1      45.135   3.493  12.689  0.00  0.00    +0.000 S 
ATOM     25  C   UNL     1      44.423   4.936  12.137  0.00  0.00    +0.000 A 
ATOM     26  N   UNL     1      43.160   4.942  11.629  0.00  0.00    +0.000 NA
ATOM     27  C   UNL     1      42.759   6.098  11.220  0.00  0.00    +0.000 A 
ATOM     28  N   UNL     1      43.499   7.248  11.279  0.00  0.00    +0.000 N 
ATOM     29  C   UNL     1      44.752   7.300  11.840  0.00  0.00    +0.000 A 
ATOM     30  O   UNL     1      45.344   8.366  11.972  0.00  0.00    +0.000 OA
ATOM     31  C   UNL     1      45.272   6.020  12.277  0.00  0.00    +0.000 A 
ATOM     32  H   UNL     1      43.118   8.128  10.964  0.00  0.00    +0.000 HD
ENDBRANCH  19  22
ENDBRANCH  17  18
ENDBRANCH   4  17
TORSDOF 7
ENDMDL
