MODEL 1
REMARK VINA RESULT:    -8.169      0.000      0.000
REMARK INTER + INTRA:         -10.334
REMARK INTER:                  -9.601
REMARK INTRA:                  -0.733
REMARK UNBOUND:                -0.733
REMARK  Name = 
REMARK  3 active torsions:
REMARK  status: ('A' for Active; 'I' for Inactive)
REMARK    1  A    between atoms: N_6  and  C_7
REMARK    2  A    between atoms: C_7  and  C_8
REMARK    3  A    between atoms: C_12  and  C_13
REMARK                            x       y       z     vdW  Elec       q    Type
REMARK                         _______ _______ _______ _____ _____    ______ ____
ROOT
ATOM      1  C   UNL     1      45.435   4.350  12.066  0.00  0.00    +0.000 A 
ATOM      2  C   UNL     1      45.888   3.475  13.055  0.00  0.00    +0.000 A 
ATOM      3  C   UNL     1      46.999   3.823  13.803  0.00  0.00    +0.000 A 
ATOM      4  N   UNL     1      47.690   4.971  13.637  0.00  0.00    +0.000 NA
ATOM      5  C   UNL     1      47.252   5.838  12.701  0.00  0.00    +0.000 A 
ATOM      6  C   UNL     1      46.126   5.566  11.927  0.00  0.00    +0.000 A 
ENDROOT
BRANCH   5   7
ATOM      7  C   UNL     1      48.062   7.097  12.426  0.00  0.00    +0.000 C 
ATOM      8  C   UNL     1      49.048   7.393  13.569  0.00  0.00    +0.000 C 
ATOM      9  C   UNL     1      48.363   8.040  14.773  0.00  0.00    +0.000 C 
ATOM     10  N   UNL     1      47.654   9.265  14.400  0.00  0.00    +0.000 NA
ATOM     11  C   UNL     1      46.625   8.982  13.395  0.00  0.00    +0.000 C 
ATOM     12  C   UNL     1      47.208   8.341  12.132  0.00  0.00    +0.000 C 
ATOM     13  H   UNL     1      48.317   9.938  14.020  0.00  0.00    +0.000 HD
ENDBRANCH   5   7
BRANCH   1  14
ATOM     14  C   UNL     1      44.269   3.998  11.149  0.00  0.00    +0.000 C 
ATOM     15  C   UNL     1      42.881   4.060  11.787  0.00  0.00    +0.000 C 
ATOM     16  C   UNL     1      43.276   5.086  10.780  0.00  0.00    +0.000 C 
BRANCH  14  22
ATOM     17 CL   UNL     1      47.793   2.250   5.443  0.00  0.00    +0.000 Cl
ATOM     18  C   UNL     1      46.893   2.498   6.881  0.00  0.00    +0.000 A 
ATOM     19  C   UNL     1      46.476   3.766   7.249  0.00  0.00    +0.000 A 
ATOM     20  C   UNL     1      45.721   3.925   8.416  0.00  0.00    +0.000 A 
ATOM     21  C   UNL     1      45.382   2.811   9.176  0.00  0.00    +0.000 A 
ATOM     22  N   UNL     1      44.525   2.848  10.277  0.00  0.00    +0.000 N 
ATOM     23  N   UNL     1      45.804   1.573   8.830  0.00  0.00    +0.000 NA
ATOM     24  C   UNL     1      46.549   1.442   7.703  0.00  0.00    +0.000 A 
ATOM     25  H   UNL     1      44.530   1.920  10.693  0.00  0.00    +0.000 HD
ENDBRANCH  14  22
ENDBRANCH   1  14
TORSDOF 3
ENDMDL
MODEL 2
REMARK VINA RESULT:    -6.438      3.981      7.583
REMARK INTER + INTRA:          -8.300
REMARK INTER:                  -7.531
REMARK INTRA:                  -0.769
REMARK UNBOUND:                -0.733
REMARK  Name = 
REMARK  3 active torsions:
REMARK  status: ('A' for Active; 'I' for Inactive)
REMARK    1  A    between atoms: N_6  and  C_7
REMARK    2  A    between atoms: C_7  and  C_8
REMARK    3  A    between atoms: C_12  and  C_13
REMARK                            x       y       z     vdW  Elec       q    Type
REMARK                         _______ _______ _______ _____ _____    ______ ____
ROOT
ATOM      1  C   UNL     1      47.180   7.870  12.172  0.00  0.00    +0.000 A 
ATOM      2  C   UNL     1      46.487   9.081  12.228  0.00  0.00    +0.000 A 
ATOM      3  C   UNL     1      45.146   9.105  11.888  0.00  0.00    +0.000 A 
ATOM      4  N   UNL     1      44.449   8.017  11.497  0.00  0.00    +0.000 NA
ATOM      5  C   UNL     1      45.097   6.834  11.459  0.00  0.00    +0.000 A 
ATOM      6  C   UNL     1      46.441   6.731  11.811  0.00  0.00    +0.000 A 
ENDROOT
BRANCH   5   7
ATOM      7  C   UNL     1      44.364   5.608  10.935  0.00  0.00    +0.000 C 
ATOM      8  C   UNL     1      42.955   5.493  11.539  0.00  0.00    +0.000 C 
ATOM      9  C   UNL     1      42.977   4.930  12.960  0.00  0.00    +0.000 C 
ATOM     10  N   UNL     1      43.650   3.630  13.017  0.00  0.00    +0.000 NA
ATOM     11  C   UNL     1      45.036   3.743  12.556  0.00  0.00    +0.000 C 
ATOM     12  C   UNL     1      45.130   4.289  11.128  0.00  0.00    +0.000 C 
ATOM     13  H   UNL     1      43.154   2.965  12.426  0.00  0.00    +0.000 HD
ENDBRANCH   5   7
BRANCH   1  14
ATOM     14  C   UNL     1      48.677   7.783  12.452  0.00  0.00    +0.000 C 
ATOM     15  C   UNL     1      49.581   7.769  11.219  0.00  0.00    +0.000 C 
ATOM     16  C   UNL     1      49.554   8.971  12.101  0.00  0.00    +0.000 C 
BRANCH  14  22
ATOM     17 CL   UNL     1      48.585   7.192  19.357  0.00  0.00    +0.000 Cl
ATOM     18  C   UNL     1      48.644   7.154  17.643  0.00  0.00    +0.000 A 
ATOM     19  C   UNL     1      48.657   8.326  16.906  0.00  0.00    +0.000 A 
ATOM     20  C   UNL     1      48.733   8.254  15.511  0.00  0.00    +0.000 A 
ATOM     21  C   UNL     1      48.816   7.014  14.887  0.00  0.00    +0.000 A 
ATOM     22  N   UNL     1      49.028   6.841  13.519  0.00  0.00    +0.000 N 
ATOM     23  N   UNL     1      48.784   5.867  15.603  0.00  0.00    +0.000 NA
ATOM     24  C   UNL     1      48.695   5.957  16.954  0.00  0.00    +0.000 A 
ATOM     25  H   UNL     1      48.952   5.845  13.325  0.00  0.00    +0.000 HD
ENDBRANCH  14  22
ENDBRANCH   1  14
TORSDOF 3
ENDMDL
MODEL 3
REMARK VINA RESULT:    -6.032      4.808      7.759
REMARK INTER + INTRA:          -7.822
REMARK INTER:                  -7.342
REMARK INTRA:                  -0.480
REMARK UNBOUND:                -0.733
REMARK  Name = 
REMARK  3 active torsions:
REMARK  status: ('A' for Active; 'I' for Inactive)
REMARK    1  A    between atoms: N_6  and  C_7
REMARK    2  A    between atoms: C_7  and  C_8
REMARK    3  A    between atoms: C_12  and  C_13
REMARK                            x       y       z     vdW  Elec       q    Type
REMARK                         _______ _______ _______ _____ _____    ______ ____
ROOT
ATOM      1  C   UNL     1      48.170   5.417  15.919  0.00  0.00    +0.000 A 
ATOM      2  C   UNL     1      48.956   6.559  15.754  0.00  0.00    +0.000 A 
ATOM      3  C   UNL     1      48.928   7.226  14.542  0.00  0.00    +0.000 A 
ATOM      4  N   UNL     1      48.181   6.838  13.486  0.00  0.00    +0.000 NA
ATOM      5  C   UNL     1      47.399   5.749  13.635  0.00  0.00    +0.000 A 
ATOM      6  C   UNL     1      47.357   5.043  14.835  0.00  0.00    +0.000 A 
ENDROOT
BRANCH   5   7
ATOM      7  C   UNL     1      46.616   5.233  12.436  0.00  0.00    +0.000 C 
ATOM      8  C   UNL     1      46.290   6.366  11.448  0.00  0.00    +0.000 C 
ATOM      9  C   UNL     1      45.108   7.217  11.912  0.00  0.00    +0.000 C 
ATOM     10  N   UNL     1      43.913   6.404  12.148  0.00  0.00    +0.000 NA
ATOM     11  C   UNL     1      44.170   5.392  13.177  0.00  0.00    +0.000 C 
ATOM     12  C   UNL     1      45.335   4.469  12.804  0.00  0.00    +0.000 C 
ATOM     13  H   UNL     1      43.642   5.940  11.283  0.00  0.00    +0.000 HD
ENDBRANCH   5   7
BRANCH   1  14
ATOM     14  C   UNL     1      48.212   4.585  17.196  0.00  0.00    +0.000 C 
ATOM     15  C   UNL     1      47.006   4.734  18.125  0.00  0.00    +0.000 C 
ATOM     16  C   UNL     1      47.203   3.464  17.370  0.00  0.00    +0.000 C 
BRANCH  14  22
ATOM     17 CL   UNL     1      53.896   0.651  17.697  0.00  0.00    +0.000 Cl
ATOM     18  C   UNL     1      52.590   1.761  17.656  0.00  0.00    +0.000 A 
ATOM     19  C   UNL     1      51.313   1.344  17.318  0.00  0.00    +0.000 A 
ATOM     20  C   UNL     1      50.268   2.273  17.322  0.00  0.00    +0.000 A 
ATOM     21  C   UNL     1      50.519   3.593  17.684  0.00  0.00    +0.000 A 
ATOM     22  N   UNL     1      49.526   4.560  17.846  0.00  0.00    +0.000 N 
ATOM     23  N   UNL     1      51.768   4.008  17.995  0.00  0.00    +0.000 NA
ATOM     24  C   UNL     1      52.771   3.094  17.971  0.00  0.00    +0.000 A 
ATOM     25  H   UNL     1      49.994   5.447  18.018  0.00  0.00    +0.000 HD
ENDBRANCH  14  22
ENDBRANCH   1  14
TORSDOF 3
ENDMDL
MODEL 4
REMARK VINA RESULT:    -5.973      3.782      6.173
REMARK INTER + INTRA:          -7.753
REMARK INTER:                  -6.927
REMARK INTRA:                  -0.826
REMARK UNBOUND:                -0.733
REMARK  Name = 
REMARK  3 active torsions:
REMARK  status: ('A' for Active; 'I' for Inactive)
REMARK    1  A    between atoms: N_6  and  C_7
REMARK    2  A    between atoms: C_7  and  C_8
REMARK    3  A    between atoms: C_12  and  C_13
REMARK                            x       y       z     vdW  Elec       q    Type
REMARK                         _______ _______ _______ _____ _____    ______ ____
ROOT
ATOM      1  C   UNL     1      48.557   8.163  14.594  0.00  0.00    +0.000 A 
ATOM      2  C   UNL     1      48.215   9.351  15.244  0.00  0.00    +0.000 A 
ATOM      3  C   UNL     1      48.229   9.388  16.627  0.00  0.00    +0.000 A 
ATOM      4  N   UNL     1      48.552   8.334  17.406  0.00  0.00    +0.000 NA
ATOM      5  C   UNL     1      48.906   7.185  16.794  0.00  0.00    +0.000 A 
ATOM      6  C   UNL     1      48.940   7.081  15.405  0.00  0.00    +0.000 A 
ENDROOT
BRANCH   5   7
ATOM      7  C   UNL     1      49.187   5.953  17.643  0.00  0.00    +0.000 C 
ATOM      8  C   UNL     1      48.848   4.659  16.885  0.00  0.00    +0.000 C 
ATOM      9  C   UNL     1      47.348   4.367  16.876  0.00  0.00    +0.000 C 
ATOM     10  N   UNL     1      46.799   4.307  18.232  0.00  0.00    +0.000 NA
ATOM     11  C   UNL     1      47.007   5.578  18.932  0.00  0.00    +0.000 C 
ATOM     12  C   UNL     1      48.487   5.961  19.011  0.00  0.00    +0.000 C 
ATOM     13  H   UNL     1      47.258   3.560  18.751  0.00  0.00    +0.000 HD
ENDBRANCH   5   7
BRANCH   1  14
ATOM     14  C   UNL     1      48.485   8.023  13.077  0.00  0.00    +0.000 C 
ATOM     15  C   UNL     1      49.375   8.978  12.280  0.00  0.00    +0.000 C 
ATOM     16  C   UNL     1      49.710   7.526  12.332  0.00  0.00    +0.000 C 
BRANCH  14  22
ATOM     17 CL   UNL     1      43.480   3.239  12.763  0.00  0.00    +0.000 Cl
ATOM     18  C   UNL     1      44.589   4.547  12.782  0.00  0.00    +0.000 A 
ATOM     19  C   UNL     1      45.947   4.325  12.949  0.00  0.00    +0.000 A 
ATOM     20  C   UNL     1      46.823   5.415  12.932  0.00  0.00    +0.000 A 
ATOM     21  C   UNL     1      46.325   6.698  12.727  0.00  0.00    +0.000 A 
ATOM     22  N   UNL     1      47.126   7.829  12.562  0.00  0.00    +0.000 N 
ATOM     23  N   UNL     1      44.999   6.920  12.584  0.00  0.00    +0.000 NA
ATOM     24  C   UNL     1      44.163   5.851  12.619  0.00  0.00    +0.000 A 
ATOM     25  H   UNL     1      46.506   8.634  12.525  0.00  0.00    +0.000 HD
ENDBRANCH  14  22
ENDBRANCH   1  14
TORSDOF 3
ENDMDL
MODEL 5
REMARK VINA RESULT:    -5.701      4.022      8.075
REMARK INTER + INTRA:          -7.433
REMARK INTER:                  -7.023
REMARK INTRA:                  -0.410
REMARK UNBOUND:                -0.733
REMARK  Name = 
REMARK  3 active torsions:
REMARK  status: ('A' for Active; 'I' for Inactive)
REMARK    1  A    between atoms: N_6  and  C_7
REMARK    2  A    between atoms: C_7  and  C_8
REMARK    3  A    between atoms: C_12  and  C_13
REMARK                            x       y       z     vdW  Elec       q    Type
REMARK                         _______ _______ _______ _____ _____    ______ ____
ROOT
ATOM      1  C   UNL     1      47.626   6.440  13.456  0.00  0.00    +0.000 A 
ATOM      2  C   UNL     1      47.908   5.451  14.401  0.00  0.00    +0.000 A 
ATOM      3  C   UNL     1      46.949   4.492  14.677  0.00  0.00    +0.000 A 
ATOM      4  N   UNL     1      45.736   4.448  14.085  0.00  0.00    +0.000 NA
ATOM      5  C   UNL     1      45.456   5.382  13.153  0.00  0.00    +0.000 A 
ATOM      6  C   UNL     1      46.382   6.363  12.807  0.00  0.00    +0.000 A 
ENDROOT
BRANCH   5   7
ATOM      7  C   UNL     1      44.066   5.415  12.536  0.00  0.00    +0.000 C 
ATOM      8  C   UNL     1      43.222   4.211  12.986  0.00  0.00    +0.000 C 
ATOM      9  C   UNL     1      43.580   2.934  12.225  0.00  0.00    +0.000 C 
ATOM     10  N   UNL     1      43.457   3.113  10.777  0.00  0.00    +0.000 NA
ATOM     11  C   UNL     1      44.346   4.181  10.310  0.00  0.00    +0.000 C 
ATOM     12  C   UNL     1      44.062   5.517  11.002  0.00  0.00    +0.000 C 
ATOM     13  H   UNL     1      42.495   3.354  10.546  0.00  0.00    +0.000 HD
ENDBRANCH   5   7
BRANCH   1  14
ATOM     14  C   UNL     1      48.601   7.575  13.162  0.00  0.00    +0.000 C 
ATOM     15  C   UNL     1      49.147   7.627  11.734  0.00  0.00    +0.000 C 
ATOM     16  C   UNL     1      48.179   8.664  12.191  0.00  0.00    +0.000 C 
BRANCH  14  22
ATOM     17 CL   UNL     1      49.004  10.155  19.582  0.00  0.00    +0.000 Cl
ATOM     18  C   UNL     1      49.078   9.448  18.021  0.00  0.00    +0.000 A 
ATOM     19  C   UNL     1      48.118   9.736  17.064  0.00  0.00    +0.000 A 
ATOM     20  C   UNL     1      48.227   9.162  15.794  0.00  0.00    +0.000 A 
ATOM     21  C   UNL     1      49.303   8.330  15.502  0.00  0.00    +0.000 A 
ATOM     22  N   UNL     1      49.572   7.817  14.232  0.00  0.00    +0.000 N 
ATOM     23  N   UNL     1      50.231   8.032  16.440  0.00  0.00    +0.000 NA
ATOM     24  C   UNL     1      50.100   8.587  17.671  0.00  0.00    +0.000 A 
ATOM     25  H   UNL     1      50.354   7.174  14.326  0.00  0.00    +0.000 HD
ENDBRANCH  14  22
ENDBRANCH   1  14
TORSDOF 3
ENDMDL
MODEL 6
REMARK VINA RESULT:    -5.573      3.126      5.847
REMARK INTER + INTRA:          -7.283
REMARK INTER:                  -6.979
REMARK INTRA:                  -0.303
REMARK UNBOUND:                -0.733
REMARK  Name = 
REMARK  3 active torsions:
REMARK  status: ('A' for Active; 'I' for Inactive)
REMARK    1  A    between atoms: N_6  and  C_7
REMARK    2  A    between atoms: C_7  and  C_8
REMARK    3  A    between atoms: C_12  and  C_13
REMARK                            x       y       z     vdW  Elec       q    Type
REMARK                         _______ _______ _______ _____ _____    ______ ____
ROOT
ATOM      1  C   UNL     1      48.990   7.440  14.598  0.00  0.00    +0.000 A 
ATOM      2  C   UNL     1      50.359   7.713  14.600  0.00  0.00    +0.000 A 
ATOM      3  C   UNL     1      51.155   7.154  15.585  0.00  0.00    +0.000 A 
ATOM      4  N   UNL     1      50.687   6.351  16.565  0.00  0.00    +0.000 NA
ATOM      5  C   UNL     1      49.370   6.060  16.565  0.00  0.00    +0.000 A 
ATOM      6  C   UNL     1      48.514   6.566  15.590  0.00  0.00    +0.000 A 
ENDROOT
BRANCH   5   7
ATOM      7  C   UNL     1      48.798   5.233  17.707  0.00  0.00    +0.000 C 
ATOM      8  C   UNL     1      49.838   4.247  18.265  0.00  0.00    +0.000 C 
ATOM      9  C   UNL     1      49.993   3.007  17.384  0.00  0.00    +0.000 C 
ATOM     10  N   UNL     1      48.715   2.321  17.185  0.00  0.00    +0.000 NA
ATOM     11  C   UNL     1      47.743   3.211  16.543  0.00  0.00    +0.000 C 
ATOM     12  C   UNL     1      47.501   4.487  17.354  0.00  0.00    +0.000 C 
ATOM     13  H   UNL     1      48.348   2.019  18.086  0.00  0.00    +0.000 HD
ENDBRANCH   5   7
BRANCH   1  14
ATOM     14  C   UNL     1      48.040   8.086  13.594  0.00  0.00    +0.000 C 
ATOM     15  C   UNL     1      48.146   9.606  13.464  0.00  0.00    +0.000 C 
ATOM     16  C   UNL     1      48.623   8.735  12.352  0.00  0.00    +0.000 C 
BRANCH  14  22
ATOM     17 CL   UNL     1      43.814   3.988   9.936  0.00  0.00    +0.000 Cl
ATOM     18  C   UNL     1      44.734   4.989  10.981  0.00  0.00    +0.000 A 
ATOM     19  C   UNL     1      45.826   5.698  10.508  0.00  0.00    +0.000 A 
ATOM     20  C   UNL     1      46.535   6.524  11.384  0.00  0.00    +0.000 A 
ATOM     21  C   UNL     1      46.125   6.640  12.708  0.00  0.00    +0.000 A 
ATOM     22  N   UNL     1      46.681   7.535  13.623  0.00  0.00    +0.000 N 
ATOM     23  N   UNL     1      45.071   5.934  13.179  0.00  0.00    +0.000 NA
ATOM     24  C   UNL     1      44.405   5.126  12.316  0.00  0.00    +0.000 A 
ATOM     25  H   UNL     1      46.260   7.342  14.528  0.00  0.00    +0.000 HD
ENDBRANCH  14  22
ENDBRANCH   1  14
TORSDOF 3
ENDMDL
MODEL 7
REMARK VINA RESULT:    -5.301      3.603      6.591
REMARK INTER + INTRA:          -6.963
REMARK INTER:                  -6.637
REMARK INTRA:                  -0.326
REMARK UNBOUND:                -0.733
REMARK  Name = 
REMARK  3 active torsions:
REMARK  status: ('A' for Active; 'I' for Inactive)
REMARK    1  A    between atoms: N_6  and  C_7
REMARK    2  A    between atoms: C_7  and  C_8
REMARK    3  A    between atoms: C_12  and  C_13
REMARK                            x       y       z     vdW  Elec       q    Type
REMARK                         _______ _______ _______ _____ _____    ______ ____
ROOT
ATOM      1  C   UNL     1      47.523   6.916  12.883  0.00  0.00    +0.000 A 
ATOM      2  C   UNL     1      47.905   6.345  14.098  0.00  0.00    +0.000 A 
ATOM      3  C   UNL     1      47.333   5.147  14.489  0.00  0.00    +0.000 A 
ATOM      4  N   UNL     1      46.409   4.482  13.762  0.00  0.00    +0.000 NA
ATOM      5  C   UNL     1      46.045   5.009  12.574  0.00  0.00    +0.000 A 
ATOM      6  C   UNL     1      46.598   6.198  12.106  0.00  0.00    +0.000 A 
ENDROOT
BRANCH   5   7
ATOM      7  C   UNL     1      44.940   4.332  11.776  0.00  0.00    +0.000 C 
ATOM      8  C   UNL     1      44.388   5.260  10.681  0.00  0.00    +0.000 C 
ATOM      9  C   UNL     1      43.413   6.298  11.238  0.00  0.00    +0.000 C 
ATOM     10  N   UNL     1      42.306   5.669  11.960  0.00  0.00    +0.000 NA
ATOM     11  C   UNL     1      42.807   4.873  13.084  0.00  0.00    +0.000 C 
ATOM     12  C   UNL     1      43.788   3.787  12.634  0.00  0.00    +0.000 C 
ATOM     13  H   UNL     1      41.788   5.064  11.326  0.00  0.00    +0.000 HD
ENDBRANCH   5   7
BRANCH   1  14
ATOM     14  C   UNL     1      48.049   8.273  12.428  0.00  0.00    +0.000 C 
ATOM     15  C   UNL     1      46.996   9.368  12.252  0.00  0.00    +0.000 C 
ATOM     16  C   UNL     1      47.961   9.448  13.385  0.00  0.00    +0.000 C 
BRANCH  14  22
ATOM     17 CL   UNL     1      54.933   8.086  11.644  0.00  0.00    +0.000 Cl
ATOM     18  C   UNL     1      53.218   8.082  11.657  0.00  0.00    +0.000 A 
ATOM     19  C   UNL     1      52.514   8.599  12.732  0.00  0.00    +0.000 A 
ATOM     20  C   UNL     1      51.116   8.603  12.694  0.00  0.00    +0.000 A 
ATOM     21  C   UNL     1      50.454   8.112  11.573  0.00  0.00    +0.000 A 
ATOM     22  N   UNL     1      49.074   8.193  11.383  0.00  0.00    +0.000 N 
ATOM     23  N   UNL     1      51.138   7.589  10.530  0.00  0.00    +0.000 NA
ATOM     24  C   UNL     1      52.494   7.580  10.593  0.00  0.00    +0.000 A 
ATOM     25  H   UNL     1      48.856   7.678  10.534  0.00  0.00    +0.000 HD
ENDBRANCH  14  22
ENDBRANCH   1  14
TORSDOF 3
ENDMDL
MODEL 8
REMARK VINA RESULT:    -5.221      3.723      6.415
REMARK INTER + INTRA:          -6.869
REMARK INTER:                  -6.352
REMARK INTRA:                  -0.517
REMARK UNBOUND:                -0.733
REMARK  Name = 
REMARK  3 active torsions:
REMARK  status: ('A' for Active; 'I' for Inactive)
REMARK    1  A    between atoms: N_6  and  C_7
REMARK    2  A    between atoms: C_7  and  C_8
REMARK    3  A    between atoms: C_12  and  C_13
REMARK                            x       y       z     vdW  Elec       q    Type
REMARK                         _______ _______ _______ _____ _____    ______ ____
ROOT
ATOM      1  C   UNL     1      48.529   7.604  15.178  0.00  0.00    +0.000 A 
ATOM      2  C   UNL     1      48.473   8.750  15.973  0.00  0.00    +0.000 A 
ATOM      3  C   UNL     1      48.459   8.612  17.351  0.00  0.00    +0.000 A 
ATOM      4  N   UNL     1      48.494   7.423  17.989  0.00  0.00    +0.000 NA
ATOM      5  C   UNL     1      48.570   6.306  17.235  0.00  0.00    +0.000 A 
ATOM      6  C   UNL     1      48.613   6.370  15.844  0.00  0.00    +0.000 A 
ENDROOT
BRANCH   5   7
ATOM      7  C   UNL     1      48.518   4.949  17.921  0.00  0.00    +0.000 C 
ATOM      8  C   UNL     1      48.817   5.066  19.425  0.00  0.00    +0.000 C 
ATOM      9  C   UNL     1      50.312   5.204  19.710  0.00  0.00    +0.000 C 
ATOM     10  N   UNL     1      51.078   4.096  19.136  0.00  0.00    +0.000 NA
ATOM     11  C   UNL     1      50.900   4.041  17.682  0.00  0.00    +0.000 C 
ATOM     12  C   UNL     1      49.430   3.888  17.284  0.00  0.00    +0.000 C 
ATOM     13  H   UNL     1      50.763   3.218  19.545  0.00  0.00    +0.000 HD
ENDBRANCH   5   7
BRANCH   1  14
ATOM     14  C   UNL     1      48.463   7.674  13.655  0.00  0.00    +0.000 C 
ATOM     15  C   UNL     1      49.380   8.708  13.000  0.00  0.00    +0.000 C 
ATOM     16  C   UNL     1      49.683   7.256  12.854  0.00  0.00    +0.000 C 
BRANCH  14  22
ATOM     17 CL   UNL     1      43.432   3.053  12.490  0.00  0.00    +0.000 Cl
ATOM     18  C   UNL     1      44.548   4.330  12.743  0.00  0.00    +0.000 A 
ATOM     19  C   UNL     1      45.904   4.075  12.867  0.00  0.00    +0.000 A 
ATOM     20  C   UNL     1      46.787   5.144  13.046  0.00  0.00    +0.000 A 
ATOM     21  C   UNL     1      46.297   6.446  13.074  0.00  0.00    +0.000 A 
ATOM     22  N   UNL     1      47.104   7.583  13.114  0.00  0.00    +0.000 N 
ATOM     23  N   UNL     1      44.972   6.698  12.973  0.00  0.00    +0.000 NA
ATOM     24  C   UNL     1      44.130   5.645  12.816  0.00  0.00    +0.000 A 
ATOM     25  H   UNL     1      46.489   8.386  13.222  0.00  0.00    +0.000 HD
ENDBRANCH  14  22
ENDBRANCH   1  14
TORSDOF 3
ENDMDL
