MODEL 1
REMARK VINA RESULT:    -7.712      0.000      0.000
REMARK INTER + INTRA:         -12.220
REMARK INTER:                 -10.869
REMARK INTRA:                  -1.352
REMARK UNBOUND:                -1.352
REMARK  Name = 
REMARK  7 active torsions:
REMARK  status: ('A' for Active; 'I' for Inactive)
REMARK    1  A    between atoms: C_2  and  C_20
REMARK    2  A    between atoms: N_3  and  C_4
REMARK    3  A    between atoms: C_4  and  C_5
REMARK    4  A    between atoms: C_8  and  C_9
REMARK    5  A    between atoms: C_9  and  C_10
REMARK    6  A    between atoms: C_10  and  O_11
REMARK    7  A    between atoms: O_11  and  C_12
REMARK                            x       y       z     vdW  Elec       q    Type
REMARK                         _______ _______ _______ _____ _____    ______ ____
ROOT
ATOM      1  C   UNL     1      47.319   8.486  13.052  0.00  0.00    +0.000 C 
ENDROOT
BRANCH   1   2
ATOM      2  C   UNL     1      46.422   7.422  12.470  0.00  0.00    +0.000 A 
ATOM      3  C   UNL     1      46.880   6.567  11.461  0.00  0.00    +0.000 A 
ATOM      4  C   UNL     1      46.050   5.566  10.945  0.00  0.00    +0.000 A 
ATOM      5  C   UNL     1      44.739   5.403  11.415  0.00  0.00    +0.000 A 
ATOM      6  C   UNL     1      44.267   6.301  12.382  0.00  0.00    +0.000 A 
ATOM      7  C   UNL     1      45.095   7.301  12.900  0.00  0.00    +0.000 A 
BRANCH   5   8
ATOM      8  C   UNL     1      43.811   4.302  10.940  0.00  0.00    +0.000 C 
BRANCH   8   9
ATOM      9  C   UNL     1      44.498   3.067  10.357  0.00  0.00    +0.000 C 
BRANCH   9  10
ATOM     10  O   UNL     1      44.277   3.001   8.947  0.00  0.00    +0.000 OA
BRANCH  10  11
ATOM     11  C   UNL     1      45.416   2.562   8.299  0.00  0.00    +0.000 A 
ATOM     12  N   UNL     1      46.087   3.501   7.619  0.00  0.00    +0.000 NA
ATOM     13  C   UNL     1      47.192   3.074   6.974  0.00  0.00    +0.000 A 
ATOM     14  C   UNL     1      47.641   1.776   7.007  0.00  0.00    +0.000 A 
ATOM     15  C   UNL     1      46.886   0.900   7.751  0.00  0.00    +0.000 A 
ATOM     16  N   UNL     1      45.768   1.270   8.404  0.00  0.00    +0.000 NA
ENDBRANCH  10  11
ENDBRANCH   9  10
ENDBRANCH   8   9
ENDBRANCH   5   8
ENDBRANCH   1   2
BRANCH   1  19
ATOM     17  O   UNL     1      49.628   6.991  13.822  0.00  0.00    +0.000 OA
ATOM     18  C   UNL     1      48.784   7.311  14.649  0.00  0.00    +0.000 C 
ATOM     19  N   UNL     1      47.701   8.127  14.390  0.00  0.00    +0.000 N 
ATOM     20  H   UNL     1      46.948   8.114  15.058  0.00  0.00    +0.000 HD
BRANCH  18  21
ATOM     21  C   UNL     1      48.679   6.698  15.966  0.00  0.00    +0.000 A 
ATOM     22  C   UNL     1      49.184   7.301  17.103  0.00  0.00    +0.000 A 
ATOM     23  S   UNL     1      49.447   6.160  18.356  0.00  0.00    +0.000 S 
ATOM     24  C   UNL     1      48.751   4.903  17.436  0.00  0.00    +0.000 A 
ATOM     25  N   UNL     1      48.773   3.605  17.839  0.00  0.00    +0.000 NA
ATOM     26  C   UNL     1      48.130   2.799  17.056  0.00  0.00    +0.000 A 
ATOM     27  N   UNL     1      47.430   3.178  15.936  0.00  0.00    +0.000 N 
ATOM     28  C   UNL     1      47.384   4.478  15.483  0.00  0.00    +0.000 A 
ATOM     29  O   UNL     1      46.709   4.808  14.518  0.00  0.00    +0.000 OA
ATOM     30  C   UNL     1      48.198   5.385  16.268  0.00  0.00    +0.000 A 
ATOM     31  H   UNL     1      46.869   2.512  15.427  0.00  0.00    +0.000 HD
ENDBRANCH  18  21
ENDBRANCH   1  19
TORSDOF 7
ENDMDL
MODEL 2
REMARK VINA RESULT:    -7.444      1.536      1.761
REMARK INTER + INTRA:         -11.842
REMARK INTER:                 -10.861
REMARK INTRA:                  -0.981
REMARK UNBOUND:                -1.352
REMARK  Name = 
REMARK  7 active torsions:
REMARK  status: ('A' for Active; 'I' for Inactive)
REMARK    1  A    between atoms: C_2  and  C_20
REMARK    2  A    between atoms: N_3  and  C_4
REMARK    3  A    between atoms: C_4  and  C_5
REMARK    4  A    between atoms: C_8  and  C_9
REMARK    5  A    between atoms: C_9  and  C_10
REMARK    6  A    between atoms: C_10  and  O_11
REMARK    7  A    between atoms: O_11  and  C_12
REMARK                            x       y       z     vdW  Elec       q    Type
REMARK                         _______ _______ _______ _____ _____    ______ ____
ROOT
ATOM      1  C   UNL     1      48.157   7.129  13.852  0.00  0.00    +0.000 C 
ENDROOT
BRANCH   1   2
ATOM      2  C   UNL     1      47.076   6.386  13.106  0.00  0.00    +0.000 A 
ATOM      3  C   UNL     1      46.545   5.193  13.609  0.00  0.00    +0.000 A 
ATOM      4  C   UNL     1      45.525   4.524  12.924  0.00  0.00    +0.000 A 
ATOM      5  C   UNL     1      45.020   5.024  11.715  0.00  0.00    +0.000 A 
ATOM      6  C   UNL     1      45.598   6.187  11.187  0.00  0.00    +0.000 A 
ATOM      7  C   UNL     1      46.617   6.857  11.870  0.00  0.00    +0.000 A 
BRANCH   5   8
ATOM      8  C   UNL     1      43.876   4.379  10.956  0.00  0.00    +0.000 C 
BRANCH   8   9
ATOM      9  C   UNL     1      44.215   3.884   9.550  0.00  0.00    +0.000 C 
BRANCH   9  10
ATOM     10  O   UNL     1      44.754   2.562   9.611  0.00  0.00    +0.000 OA
BRANCH  10  11
ATOM     11  C   UNL     1      45.628   2.347   8.563  0.00  0.00    +0.000 A 
ATOM     12  N   UNL     1      45.882   3.418   7.799  0.00  0.00    +0.000 NA
ATOM     13  C   UNL     1      46.724   3.210   6.766  0.00  0.00    +0.000 A 
ATOM     14  C   UNL     1      47.317   2.000   6.497  0.00  0.00    +0.000 A 
ATOM     15  C   UNL     1      47.000   0.974   7.357  0.00  0.00    +0.000 A 
ATOM     16  N   UNL     1      46.157   1.124   8.395  0.00  0.00    +0.000 NA
ENDBRANCH  10  11
ENDBRANCH   9  10
ENDBRANCH   8   9
ENDBRANCH   5   8
ENDBRANCH   1   2
BRANCH   1  19
ATOM     17  O   UNL     1      48.544   8.108  16.507  0.00  0.00    +0.000 OA
ATOM     18  C   UNL     1      48.837   6.957  16.214  0.00  0.00    +0.000 C 
ATOM     19  N   UNL     1      48.579   6.366  14.994  0.00  0.00    +0.000 N 
ATOM     20  H   UNL     1      49.082   5.522  14.779  0.00  0.00    +0.000 HD
BRANCH  18  21
ATOM     21  C   UNL     1      49.698   6.116  17.035  0.00  0.00    +0.000 A 
ATOM     22  C   UNL     1      50.850   6.597  17.629  0.00  0.00    +0.000 A 
ATOM     23  S   UNL     1      51.934   5.326  18.020  0.00  0.00    +0.000 S 
ATOM     24  C   UNL     1      50.808   4.140  17.536  0.00  0.00    +0.000 A 
ATOM     25  N   UNL     1      51.123   2.820  17.465  0.00  0.00    +0.000 NA
ATOM     26  C   UNL     1      50.126   2.054  17.156  0.00  0.00    +0.000 A 
ATOM     27  N   UNL     1      48.835   2.483  16.957  0.00  0.00    +0.000 N 
ATOM     28  C   UNL     1      48.468   3.809  17.011  0.00  0.00    +0.000 A 
ATOM     29  O   UNL     1      47.304   4.167  16.890  0.00  0.00    +0.000 OA
ATOM     30  C   UNL     1      49.586   4.703  17.232  0.00  0.00    +0.000 A 
ATOM     31  H   UNL     1      48.087   1.821  16.816  0.00  0.00    +0.000 HD
ENDBRANCH  18  21
ENDBRANCH   1  19
TORSDOF 7
ENDMDL
MODEL 3
REMARK VINA RESULT:    -7.414      1.721      2.281
REMARK INTER + INTRA:         -11.800
REMARK INTER:                 -10.863
REMARK INTRA:                  -0.937
REMARK UNBOUND:                -1.352
REMARK  Name = 
REMARK  7 active torsions:
REMARK  status: ('A' for Active; 'I' for Inactive)
REMARK    1  A    between atoms: C_2  and  C_20
REMARK    2  A    between atoms: N_3  and  C_4
REMARK    3  A    between atoms: C_4  and  C_5
REMARK    4  A    between atoms: C_8  and  C_9
REMARK    5  A    between atoms: C_9  and  C_10
REMARK    6  A    between atoms: C_10  and  O_11
REMARK    7  A    between atoms: O_11  and  C_12
REMARK                            x       y       z     vdW  Elec       q    Type
REMARK                         _______ _______ _______ _____ _____    ______ ____
ROOT
ATOM      1  C   UNL     1      48.779   6.905  13.789  0.00  0.00    +0.000 C 
ENDROOT
BRANCH   1   2
ATOM      2  C   UNL     1      47.607   6.143  13.220  0.00  0.00    +0.000 A 
ATOM      3  C   UNL     1      46.957   6.583  12.061  0.00  0.00    +0.000 A 
ATOM      4  C   UNL     1      45.888   5.857  11.526  0.00  0.00    +0.000 A 
ATOM      5  C   UNL     1      45.436   4.681  12.141  0.00  0.00    +0.000 A 
ATOM      6  C   UNL     1      46.053   4.278  13.334  0.00  0.00    +0.000 A 
ATOM      7  C   UNL     1      47.121   5.003  13.869  0.00  0.00    +0.000 A 
BRANCH   5   8
ATOM      8  C   UNL     1      44.324   3.817  11.578  0.00  0.00    +0.000 C 
BRANCH   8   9
ATOM      9  C   UNL     1      44.219   3.788  10.053  0.00  0.00    +0.000 C 
BRANCH   9  10
ATOM     10  O   UNL     1      44.415   2.456   9.572  0.00  0.00    +0.000 OA
BRANCH  10  11
ATOM     11  C   UNL     1      45.398   2.433   8.602  0.00  0.00    +0.000 A 
ATOM     12  N   UNL     1      46.013   1.254   8.436  0.00  0.00    +0.000 NA
ATOM     13  C   UNL     1      46.983   1.230   7.499  0.00  0.00    +0.000 A 
ATOM     14  C   UNL     1      47.330   2.316   6.733  0.00  0.00    +0.000 A 
ATOM     15  C   UNL     1      46.621   3.470   6.973  0.00  0.00    +0.000 A 
ATOM     16  N   UNL     1      45.652   3.552   7.904  0.00  0.00    +0.000 NA
ENDBRANCH  10  11
ENDBRANCH   9  10
ENDBRANCH   8   9
ENDBRANCH   5   8
ENDBRANCH   1   2
BRANCH   1  19
ATOM     17  O   UNL     1      50.392   6.244  16.052  0.00  0.00    +0.000 OA
ATOM     18  C   UNL     1      49.309   6.796  16.194  0.00  0.00    +0.000 C 
ATOM     19  N   UNL     1      48.519   7.254  15.158  0.00  0.00    +0.000 N 
ATOM     20  H   UNL     1      47.555   7.452  15.371  0.00  0.00    +0.000 HD
BRANCH  18  21
ATOM     21  C   UNL     1      48.596   6.848  17.463  0.00  0.00    +0.000 A 
ATOM     22  C   UNL     1      48.118   8.033  17.992  0.00  0.00    +0.000 A 
ATOM     23  S   UNL     1      47.862   7.909  19.683  0.00  0.00    +0.000 S 
ATOM     24  C   UNL     1      48.244   6.246  19.676  0.00  0.00    +0.000 A 
ATOM     25  N   UNL     1      48.367   5.521  20.819  0.00  0.00    +0.000 NA
ATOM     26  C   UNL     1      48.582   4.260  20.623  0.00  0.00    +0.000 A 
ATOM     27  N   UNL     1      48.638   3.651  19.392  0.00  0.00    +0.000 N 
ATOM     28  C   UNL     1      48.526   4.343  18.207  0.00  0.00    +0.000 A 
ATOM     29  O   UNL     1      48.519   3.778  17.122  0.00  0.00    +0.000 OA
ATOM     30  C   UNL     1      48.410   5.776  18.391  0.00  0.00    +0.000 A 
ATOM     31  H   UNL     1      48.710   2.647  19.315  0.00  0.00    +0.000 HD
ENDBRANCH  18  21
ENDBRANCH   1  19
TORSDOF 7
ENDMDL
MODEL 4
REMARK VINA RESULT:    -7.165      3.158      8.109
REMARK INTER + INTRA:         -11.448
REMARK INTER:                 -10.516
REMARK INTRA:                  -0.932
REMARK UNBOUND:                -1.352
REMARK  Name = 
REMARK  7 active torsions:
REMARK  status: ('A' for Active; 'I' for Inactive)
REMARK    1  A    between atoms: C_2  and  C_20
REMARK    2  A    between atoms: N_3  and  C_4
REMARK    3  A    between atoms: C_4  and  C_5
REMARK    4  A    between atoms: C_8  and  C_9
REMARK    5  A    between atoms: C_9  and  C_10
REMARK    6  A    between atoms: C_10  and  O_11
REMARK    7  A    between atoms: O_11  and  C_12
REMARK                            x       y       z     vdW  Elec       q    Type
REMARK                         _______ _______ _______ _____ _____    ______ ____
ROOT
ATOM      1  C   UNL     1      47.535   6.691  12.736  0.00  0.00    +0.000 C 
ENDROOT
BRANCH   1   2
ATOM      2  C   UNL     1      47.694   6.065  14.100  0.00  0.00    +0.000 A 
ATOM      3  C   UNL     1      46.979   4.915  14.452  0.00  0.00    +0.000 A 
ATOM      4  C   UNL     1      47.152   4.327  15.709  0.00  0.00    +0.000 A 
ATOM      5  C   UNL     1      48.034   4.879  16.648  0.00  0.00    +0.000 A 
ATOM      6  C   UNL     1      48.702   6.065  16.311  0.00  0.00    +0.000 A 
ATOM      7  C   UNL     1      48.531   6.654  15.055  0.00  0.00    +0.000 A 
BRANCH   5   8
ATOM      8  C   UNL     1      48.312   4.257  18.003  0.00  0.00    +0.000 C 
BRANCH   8   9
ATOM      9  C   UNL     1      48.890   2.842  17.972  0.00  0.00    +0.000 C 
BRANCH   9  10
ATOM     10  O   UNL     1      49.805   2.708  16.883  0.00  0.00    +0.000 OA
BRANCH  10  11
ATOM     11  C   UNL     1      51.055   2.345  17.345  0.00  0.00    +0.000 A 
ATOM     12  N   UNL     1      51.802   3.346  17.830  0.00  0.00    +0.000 NA
ATOM     13  C   UNL     1      53.028   2.998  18.269  0.00  0.00    +0.000 A 
ATOM     14  C   UNL     1      53.507   1.710  18.254  0.00  0.00    +0.000 A 
ATOM     15  C   UNL     1      52.649   0.758  17.753  0.00  0.00    +0.000 A 
ATOM     16  N   UNL     1      51.420   1.053  17.290  0.00  0.00    +0.000 NA
ENDBRANCH  10  11
ENDBRANCH   9  10
ENDBRANCH   8   9
ENDBRANCH   5   8
ENDBRANCH   1   2
BRANCH   1  19
ATOM     17  O   UNL     1      45.098   7.404  11.427  0.00  0.00    +0.000 OA
ATOM     18  C   UNL     1      45.513   6.253  11.395  0.00  0.00    +0.000 C 
ATOM     19  N   UNL     1      46.732   5.844  11.898  0.00  0.00    +0.000 N 
ATOM     20  H   UNL     1      46.857   4.856  12.048  0.00  0.00    +0.000 HD
BRANCH  18  21
ATOM     21  C   UNL     1      44.688   5.113  11.022  0.00  0.00    +0.000 A 
ATOM     22  C   UNL     1      43.618   4.693  11.792  0.00  0.00    +0.000 A 
ATOM     23  S   UNL     1      43.209   3.060  11.463  0.00  0.00    +0.000 S 
ATOM     24  C   UNL     1      44.353   2.968  10.201  0.00  0.00    +0.000 A 
ATOM     25  N   UNL     1      44.646   1.803   9.564  0.00  0.00    +0.000 NA
ATOM     26  C   UNL     1      45.478   1.933   8.581  0.00  0.00    +0.000 A 
ATOM     27  N   UNL     1      46.006   3.126   8.148  0.00  0.00    +0.000 N 
ATOM     28  C   UNL     1      45.746   4.330   8.763  0.00  0.00    +0.000 A 
ATOM     29  O   UNL     1      46.177   5.389   8.329  0.00  0.00    +0.000 OA
ATOM     30  C   UNL     1      44.916   4.200   9.944  0.00  0.00    +0.000 A 
ATOM     31  H   UNL     1      46.571   3.167   7.313  0.00  0.00    +0.000 HD
ENDBRANCH  18  21
ENDBRANCH   1  19
TORSDOF 7
ENDMDL
MODEL 5
REMARK VINA RESULT:    -7.120      2.410      3.224
REMARK INTER + INTRA:         -11.385
REMARK INTER:                 -10.396
REMARK INTRA:                  -0.990
REMARK UNBOUND:                -1.352
REMARK  Name = 
REMARK  7 active torsions:
REMARK  status: ('A' for Active; 'I' for Inactive)
REMARK    1  A    between atoms: C_2  and  C_20
REMARK    2  A    between atoms: N_3  and  C_4
REMARK    3  A    between atoms: C_4  and  C_5
REMARK    4  A    between atoms: C_8  and  C_9
REMARK    5  A    between atoms: C_9  and  C_10
REMARK    6  A    between atoms: C_10  and  O_11
REMARK    7  A    between atoms: O_11  and  C_12
REMARK                            x       y       z     vdW  Elec       q    Type
REMARK                         _______ _______ _______ _____ _____    ______ ____
ROOT
ATOM      1  C   UNL     1      47.545   4.420  15.589  0.00  0.00    +0.000 C 
ENDROOT
BRANCH   1   2
ATOM      2  C   UNL     1      46.903   4.654  14.244  0.00  0.00    +0.000 A 
ATOM      3  C   UNL     1      46.196   3.636  13.596  0.00  0.00    +0.000 A 
ATOM      4  C   UNL     1      45.583   3.869  12.361  0.00  0.00    +0.000 A 
ATOM      5  C   UNL     1      45.670   5.123  11.738  0.00  0.00    +0.000 A 
ATOM      6  C   UNL     1      46.429   6.121  12.364  0.00  0.00    +0.000 A 
ATOM      7  C   UNL     1      47.043   5.889  13.598  0.00  0.00    +0.000 A 
BRANCH   5   8
ATOM      8  C   UNL     1      44.977   5.458  10.432  0.00  0.00    +0.000 C 
BRANCH   8   9
ATOM      9  C   UNL     1      44.084   4.358   9.857  0.00  0.00    +0.000 C 
BRANCH   9  10
ATOM     10  O   UNL     1      44.193   4.330   8.433  0.00  0.00    +0.000 OA
BRANCH  10  11
ATOM     11  C   UNL     1      45.214   3.485   8.043  0.00  0.00    +0.000 A 
ATOM     12  N   UNL     1      45.163   2.248   8.554  0.00  0.00    +0.000 NA
ATOM     13  C   UNL     1      46.165   1.423   8.186  0.00  0.00    +0.000 A 
ATOM     14  C   UNL     1      47.177   1.788   7.331  0.00  0.00    +0.000 A 
ATOM     15  C   UNL     1      47.121   3.075   6.851  0.00  0.00    +0.000 A 
ATOM     16  N   UNL     1      46.151   3.942   7.195  0.00  0.00    +0.000 NA
ENDBRANCH  10  11
ENDBRANCH   9  10
ENDBRANCH   8   9
ENDBRANCH   5   8
ENDBRANCH   1   2
BRANCH   1  19
ATOM     17  O   UNL     1      50.021   5.331  16.683  0.00  0.00    +0.000 OA
ATOM     18  C   UNL     1      48.993   5.978  16.834  0.00  0.00    +0.000 C 
ATOM     19  N   UNL     1      47.781   5.675  16.246  0.00  0.00    +0.000 N 
ATOM     20  H   UNL     1      46.962   6.113  16.634  0.00  0.00    +0.000 HD
BRANCH  18  21
ATOM     21  C   UNL     1      48.847   7.031  17.829  0.00  0.00    +0.000 A 
ATOM     22  C   UNL     1      49.508   8.241  17.727  0.00  0.00    +0.000 A 
ATOM     23  S   UNL     1      49.626   9.025  19.248  0.00  0.00    +0.000 S 
ATOM     24  C   UNL     1      48.672   7.828  20.002  0.00  0.00    +0.000 A 
ATOM     25  N   UNL     1      48.482   7.787  21.347  0.00  0.00    +0.000 NA
ATOM     26  C   UNL     1      47.667   6.860  21.737  0.00  0.00    +0.000 A 
ATOM     27  N   UNL     1      46.991   6.003  20.903  0.00  0.00    +0.000 N 
ATOM     28  C   UNL     1      47.155   6.001  19.535  0.00  0.00    +0.000 A 
ATOM     29  O   UNL     1      46.501   5.271  18.803  0.00  0.00    +0.000 OA
ATOM     30  C   UNL     1      48.155   6.944  19.079  0.00  0.00    +0.000 A 
ATOM     31  H   UNL     1      46.295   5.369  21.267  0.00  0.00    +0.000 HD
ENDBRANCH  18  21
ENDBRANCH   1  19
TORSDOF 7
ENDMDL
MODEL 6
REMARK VINA RESULT:    -7.007      1.937      2.326
REMARK INTER + INTRA:         -11.226
REMARK INTER:                 -10.345
REMARK INTRA:                  -0.881
REMARK UNBOUND:                -1.352
REMARK  Name = 
REMARK  7 active torsions:
REMARK  status: ('A' for Active; 'I' for Inactive)
REMARK    1  A    between atoms: C_2  and  C_20
REMARK    2  A    between atoms: N_3  and  C_4
REMARK    3  A    between atoms: C_4  and  C_5
REMARK    4  A    between atoms: C_8  and  C_9
REMARK    5  A    between atoms: C_9  and  C_10
REMARK    6  A    between atoms: C_10  and  O_11
REMARK    7  A    between atoms: O_11  and  C_12
REMARK                            x       y       z     vdW  Elec       q    Type
REMARK                         _______ _______ _______ _____ _____    ______ ____
ROOT
ATOM      1  C   UNL     1      47.789   7.195  13.631  0.00  0.00    +0.000 C 
ENDROOT
BRANCH   1   2
ATOM      2  C   UNL     1      46.851   6.192  13.006  0.00  0.00    +0.000 A 
ATOM      3  C   UNL     1      46.318   6.402  11.730  0.00  0.00    +0.000 A 
ATOM      4  C   UNL     1      45.469   5.454  11.148  0.00  0.00    +0.000 A 
ATOM      5  C   UNL     1      45.124   4.280  11.832  0.00  0.00    +0.000 A 
ATOM      6  C   UNL     1      45.613   4.104  13.134  0.00  0.00    +0.000 A 
ATOM      7  C   UNL     1      46.462   5.050  13.716  0.00  0.00    +0.000 A 
BRANCH   5   8
ATOM      8  C   UNL     1      44.259   3.187  11.234  0.00  0.00    +0.000 C 
BRANCH   8   9
ATOM      9  C   UNL     1      44.186   3.166   9.707  0.00  0.00    +0.000 C 
BRANCH   9  10
ATOM     10  O   UNL     1      44.583   1.885   9.214  0.00  0.00    +0.000 OA
BRANCH  10  11
ATOM     11  C   UNL     1      45.644   2.012   8.337  0.00  0.00    +0.000 A 
ATOM     12  N   UNL     1      45.818   3.236   7.821  0.00  0.00    +0.000 NA
ATOM     13  C   UNL     1      46.844   3.362   6.955  0.00  0.00    +0.000 A 
ATOM     14  C   UNL     1      47.687   2.331   6.616  0.00  0.00    +0.000 A 
ATOM     15  C   UNL     1      47.428   1.123   7.220  0.00  0.00    +0.000 A 
ATOM     16  N   UNL     1      46.411   0.939   8.082  0.00  0.00    +0.000 NA
ENDBRANCH  10  11
ENDBRANCH   9  10
ENDBRANCH   8   9
ENDBRANCH   5   8
ENDBRANCH   1   2
BRANCH   1  19
ATOM     17  O   UNL     1      48.461   8.806  15.892  0.00  0.00    +0.000 OA
ATOM     18  C   UNL     1      48.623   7.593  15.915  0.00  0.00    +0.000 C 
ATOM     19  N   UNL     1      48.222   6.727  14.918  0.00  0.00    +0.000 N 
ATOM     20  H   UNL     1      48.627   5.806  14.922  0.00  0.00    +0.000 HD
BRANCH  18  21
ATOM     21  C   UNL     1      49.461   6.916  16.895  0.00  0.00    +0.000 A 
ATOM     22  C   UNL     1      50.711   6.417  16.579  0.00  0.00    +0.000 A 
ATOM     23  S   UNL     1      51.206   5.207  17.689  0.00  0.00    +0.000 S 
ATOM     24  C   UNL     1      49.828   5.458  18.663  0.00  0.00    +0.000 A 
ATOM     25  N   UNL     1      49.526   4.657  19.720  0.00  0.00    +0.000 NA
ATOM     26  C   UNL     1      48.489   5.041  20.393  0.00  0.00    +0.000 A 
ATOM     27  N   UNL     1      47.757   6.175  20.135  0.00  0.00    +0.000 N 
ATOM     28  C   UNL     1      48.019   7.014  19.074  0.00  0.00    +0.000 A 
ATOM     29  O   UNL     1      47.395   8.050  18.894  0.00  0.00    +0.000 OA
ATOM     30  C   UNL     1      49.097   6.543  18.228  0.00  0.00    +0.000 A 
ATOM     31  H   UNL     1      47.021   6.469  20.760  0.00  0.00    +0.000 HD
ENDBRANCH  18  21
ENDBRANCH   1  19
TORSDOF 7
ENDMDL
MODEL 7
REMARK VINA RESULT:    -6.895      3.102      5.213
REMARK INTER + INTRA:         -11.068
REMARK INTER:                  -9.985
REMARK INTRA:                  -1.083
REMARK UNBOUND:                -1.352
REMARK  Name = 
REMARK  7 active torsions:
REMARK  status: ('A' for Active; 'I' for Inactive)
REMARK    1  A    between atoms: C_2  and  C_20
REMARK    2  A    between atoms: N_3  and  C_4
REMARK    3  A    between atoms: C_4  and  C_5
REMARK    4  A    between atoms: C_8  and  C_9
REMARK    5  A    between atoms: C_9  and  C_10
REMARK    6  A    between atoms: C_10  and  O_11
REMARK    7  A    between atoms: O_11  and  C_12
REMARK                            x       y       z     vdW  Elec       q    Type
REMARK                         _______ _______ _______ _____ _____    ______ ____
ROOT
ATOM      1  C   UNL     1      48.138   6.579  13.788  0.00  0.00    +0.000 C 
ENDROOT
BRANCH   1   2
ATOM      2  C   UNL     1      47.065   5.716  13.171  0.00  0.00    +0.000 A 
ATOM      3  C   UNL     1      46.871   4.396  13.594  0.00  0.00    +0.000 A 
ATOM      4  C   UNL     1      45.857   3.612  13.035  0.00  0.00    +0.000 A 
ATOM      5  C   UNL     1      45.019   4.123  12.033  0.00  0.00    +0.000 A 
ATOM      6  C   UNL     1      45.256   5.426  11.573  0.00  0.00    +0.000 A 
ATOM      7  C   UNL     1      46.269   6.211  12.131  0.00  0.00    +0.000 A 
BRANCH   5   8
ATOM      8  C   UNL     1      43.865   3.346  11.431  0.00  0.00    +0.000 C 
BRANCH   8   9
ATOM      9  C   UNL     1      44.215   2.473  10.226  0.00  0.00    +0.000 C 
BRANCH   9  10
ATOM     10  O   UNL     1      44.281   3.272   9.043  0.00  0.00    +0.000 OA
BRANCH  10  11
ATOM     11  C   UNL     1      45.379   2.919   8.282  0.00  0.00    +0.000 A 
ATOM     12  N   UNL     1      45.871   3.889   7.499  0.00  0.00    +0.000 NA
ATOM     13  C   UNL     1      46.934   3.545   6.745  0.00  0.00    +0.000 A 
ATOM     14  C   UNL     1      47.514   2.299   6.766  0.00  0.00    +0.000 A 
ATOM     15  C   UNL     1      46.940   1.386   7.620  0.00  0.00    +0.000 A 
ATOM     16  N   UNL     1      45.870   1.673   8.385  0.00  0.00    +0.000 NA
ENDBRANCH  10  11
ENDBRANCH   9  10
ENDBRANCH   8   9
ENDBRANCH   5   8
ENDBRANCH   1   2
BRANCH   1  19
ATOM     17  O   UNL     1      48.173   9.338  14.525  0.00  0.00    +0.000 OA
ATOM     18  C   UNL     1      48.315   9.000  13.358  0.00  0.00    +0.000 C 
ATOM     19  N   UNL     1      48.427   7.693  12.927  0.00  0.00    +0.000 N 
ATOM     20  H   UNL     1      48.283   7.521  11.946  0.00  0.00    +0.000 HD
BRANCH  18  21
ATOM     21  C   UNL     1      48.164   9.913  12.234  0.00  0.00    +0.000 A 
ATOM     22  C   UNL     1      49.240  10.326  11.469  0.00  0.00    +0.000 A 
ATOM     23  S   UNL     1      48.896  11.785  10.635  0.00  0.00    +0.000 S 
ATOM     24  C   UNL     1      47.278  11.778  11.174  0.00  0.00    +0.000 A 
ATOM     25  N   UNL     1      46.431  12.819  10.956  0.00  0.00    +0.000 NA
ATOM     26  C   UNL     1      45.221  12.610  11.365  0.00  0.00    +0.000 A 
ATOM     27  N   UNL     1      44.770  11.441  11.929  0.00  0.00    +0.000 N 
ATOM     28  C   UNL     1      45.589  10.362  12.177  0.00  0.00    +0.000 A 
ATOM     29  O   UNL     1      45.159   9.308  12.625  0.00  0.00    +0.000 OA
ATOM     30  C   UNL     1      46.977  10.611  11.844  0.00  0.00    +0.000 A 
ATOM     31  H   UNL     1      43.791  11.310  12.135  0.00  0.00    +0.000 HD
ENDBRANCH  18  21
ENDBRANCH   1  19
TORSDOF 7
ENDMDL
MODEL 8
REMARK VINA RESULT:    -6.869      1.955      3.438
REMARK INTER + INTRA:         -11.031
REMARK INTER:                 -10.057
REMARK INTRA:                  -0.974
REMARK UNBOUND:                -1.352
REMARK  Name = 
REMARK  7 active torsions:
REMARK  status: ('A' for Active; 'I' for Inactive)
REMARK    1  A    between atoms: C_2  and  C_20
REMARK    2  A    between atoms: N_3  and  C_4
REMARK    3  A    between atoms: C_4  and  C_5
REMARK    4  A    between atoms: C_8  and  C_9
REMARK    5  A    between atoms: C_9  and  C_10
REMARK    6  A    between atoms: C_10  and  O_11
REMARK    7  A    between atoms: O_11  and  C_12
REMARK                            x       y       z     vdW  Elec       q    Type
REMARK                         _______ _______ _______ _____ _____    ______ ____
ROOT
ATOM      1  C   UNL     1      47.318   4.249  15.595  0.00  0.00    +0.000 C 
ENDROOT
BRANCH   1   2
ATOM      2  C   UNL     1      46.792   4.588  14.222  0.00  0.00    +0.000 A 
ATOM      3  C   UNL     1      47.012   5.849  13.657  0.00  0.00    +0.000 A 
ATOM      4  C   UNL     1      46.542   6.146  12.374  0.00  0.00    +0.000 A 
ATOM      5  C   UNL     1      45.832   5.195  11.628  0.00  0.00    +0.000 A 
ATOM      6  C   UNL     1      45.563   3.954  12.222  0.00  0.00    +0.000 A 
ATOM      7  C   UNL     1      46.032   3.656  13.505  0.00  0.00    +0.000 A 
BRANCH   5   8
ATOM      8  C   UNL     1      45.350   5.433  10.210  0.00  0.00    +0.000 C 
BRANCH   8   9
ATOM      9  C   UNL     1      44.316   4.434   9.688  0.00  0.00    +0.000 C 
BRANCH   9  10
ATOM     10  O   UNL     1      44.401   4.338   8.265  0.00  0.00    +0.000 OA
BRANCH  10  11
ATOM     11  C   UNL     1      45.399   3.456   7.899  0.00  0.00    +0.000 A 
ATOM     12  N   UNL     1      45.326   2.241   8.461  0.00  0.00    +0.000 NA
ATOM     13  C   UNL     1      46.306   1.381   8.117  0.00  0.00    +0.000 A 
ATOM     14  C   UNL     1      47.316   1.687   7.237  0.00  0.00    +0.000 A 
ATOM     15  C   UNL     1      47.283   2.956   6.705  0.00  0.00    +0.000 A 
ATOM     16  N   UNL     1      46.335   3.857   7.023  0.00  0.00    +0.000 NA
ENDBRANCH  10  11
ENDBRANCH   9  10
ENDBRANCH   8   9
ENDBRANCH   5   8
ENDBRANCH   1   2
BRANCH   1  19
ATOM     17  O   UNL     1      49.927   4.419  16.746  0.00  0.00    +0.000 OA
ATOM     18  C   UNL     1      49.149   5.361  16.814  0.00  0.00    +0.000 C 
ATOM     19  N   UNL     1      47.918   5.411  16.190  0.00  0.00    +0.000 N 
ATOM     20  H   UNL     1      47.267   6.105  16.517  0.00  0.00    +0.000 HD
BRANCH  18  21
ATOM     21  C   UNL     1      49.314   6.471  17.742  0.00  0.00    +0.000 A 
ATOM     22  C   UNL     1      49.748   6.288  19.042  0.00  0.00    +0.000 A 
ATOM     23  S   UNL     1      49.305   7.608  20.045  0.00  0.00    +0.000 S 
ATOM     24  C   UNL     1      48.674   8.477  18.720  0.00  0.00    +0.000 A 
ATOM     25  N   UNL     1      47.995   9.645  18.870  0.00  0.00    +0.000 NA
ATOM     26  C   UNL     1      47.657  10.206  17.753  0.00  0.00    +0.000 A 
ATOM     27  N   UNL     1      47.977   9.731  16.504  0.00  0.00    +0.000 N 
ATOM     28  C   UNL     1      48.656   8.550  16.300  0.00  0.00    +0.000 A 
ATOM     29  O   UNL     1      48.983   8.173  15.184  0.00  0.00    +0.000 OA
ATOM     30  C   UNL     1      48.938   7.836  17.528  0.00  0.00    +0.000 A 
ATOM     31  H   UNL     1      47.768  10.271  15.677  0.00  0.00    +0.000 HD
ENDBRANCH  18  21
ENDBRANCH   1  19
TORSDOF 7
ENDMDL
MODEL 9
REMARK VINA RESULT:    -6.764      2.090      3.236
REMARK INTER + INTRA:         -10.883
REMARK INTER:                  -9.940
REMARK INTRA:                  -0.943
REMARK UNBOUND:                -1.352
REMARK  Name = 
REMARK  7 active torsions:
REMARK  status: ('A' for Active; 'I' for Inactive)
REMARK    1  A    between atoms: C_2  and  C_20
REMARK    2  A    between atoms: N_3  and  C_4
REMARK    3  A    between atoms: C_4  and  C_5
REMARK    4  A    between atoms: C_8  and  C_9
REMARK    5  A    between atoms: C_9  and  C_10
REMARK    6  A    between atoms: C_10  and  O_11
REMARK    7  A    between atoms: O_11  and  C_12
REMARK                            x       y       z     vdW  Elec       q    Type
REMARK                         _______ _______ _______ _____ _____    ______ ____
ROOT
ATOM      1  C   UNL     1      48.667   6.858  13.236  0.00  0.00    +0.000 C 
ENDROOT
BRANCH   1   2
ATOM      2  C   UNL     1      47.448   6.145  12.707  0.00  0.00    +0.000 A 
ATOM      3  C   UNL     1      46.808   6.582  11.541  0.00  0.00    +0.000 A 
ATOM      4  C   UNL     1      45.693   5.899  11.043  0.00  0.00    +0.000 A 
ATOM      5  C   UNL     1      45.184   4.771  11.703  0.00  0.00    +0.000 A 
ATOM      6  C   UNL     1      45.794   4.375  12.901  0.00  0.00    +0.000 A 
ATOM      7  C   UNL     1      46.908   5.055  13.400  0.00  0.00    +0.000 A 
BRANCH   5   8
ATOM      8  C   UNL     1      44.018   3.953  11.183  0.00  0.00    +0.000 C 
BRANCH   8   9
ATOM      9  C   UNL     1      44.114   3.527   9.717  0.00  0.00    +0.000 C 
BRANCH   9  10
ATOM     10  O   UNL     1      44.762   2.257   9.616  0.00  0.00    +0.000 OA
BRANCH  10  11
ATOM     11  C   UNL     1      45.651   2.251   8.559  0.00  0.00    +0.000 A 
ATOM     12  N   UNL     1      46.218   1.067   8.292  0.00  0.00    +0.000 NA
ATOM     13  C   UNL     1      47.097   1.059   7.269  0.00  0.00    +0.000 A 
ATOM     14  C   UNL     1      47.400   2.168   6.516  0.00  0.00    +0.000 A 
ATOM     15  C   UNL     1      46.746   3.326   6.865  0.00  0.00    +0.000 A 
ATOM     16  N   UNL     1      45.869   3.392   7.884  0.00  0.00    +0.000 NA
ENDBRANCH  10  11
ENDBRANCH   9  10
ENDBRANCH   8   9
ENDBRANCH   5   8
ENDBRANCH   1   2
BRANCH   1  19
ATOM     17  O   UNL     1      50.729   7.043  15.204  0.00  0.00    +0.000 OA
ATOM     18  C   UNL     1      49.550   7.115  15.523  0.00  0.00    +0.000 C 
ATOM     19  N   UNL     1      48.496   7.152  14.632  0.00  0.00    +0.000 N 
ATOM     20  H   UNL     1      47.580   6.955  14.999  0.00  0.00    +0.000 HD
BRANCH  18  21
ATOM     21  C   UNL     1      49.078   6.950  16.891  0.00  0.00    +0.000 A 
ATOM     22  C   UNL     1      48.567   5.751  17.355  0.00  0.00    +0.000 A 
ATOM     23  S   UNL     1      47.584   5.981  18.741  0.00  0.00    +0.000 S 
ATOM     24  C   UNL     1      47.962   7.644  18.804  0.00  0.00    +0.000 A 
ATOM     25  N   UNL     1      47.350   8.500  19.664  0.00  0.00    +0.000 NA
ATOM     26  C   UNL     1      47.816   9.707  19.629  0.00  0.00    +0.000 A 
ATOM     27  N   UNL     1      48.867  10.124  18.847  0.00  0.00    +0.000 N 
ATOM     28  C   UNL     1      49.514   9.297  17.955  0.00  0.00    +0.000 A 
ATOM     29  O   UNL     1      50.485   9.668  17.311  0.00  0.00    +0.000 OA
ATOM     30  C   UNL     1      48.933   7.972  17.882  0.00  0.00    +0.000 A 
ATOM     31  H   UNL     1      49.244  11.055  18.942  0.00  0.00    +0.000 HD
ENDBRANCH  18  21
ENDBRANCH   1  19
TORSDOF 7
ENDMDL
