MODEL 1
REMARK VINA RESULT:    -8.288      0.000      0.000
REMARK INTER + INTRA:         -12.509
REMARK INTER:                 -11.680
REMARK INTRA:                  -0.829
REMARK UNBOUND:                -0.829
REMARK  Name = 
REMARK  7 active torsions:
REMARK  status: ('A' for Active; 'I' for Inactive)
REMARK    1  A    between atoms: C_2  and  C_4
REMARK    2  A    between atoms: C_7  and  N_8
REMARK    3  A    between atoms: N_8  and  C_9
REMARK    4  A    between atoms: C_9  and  C_10
REMARK    5  A    between atoms: C_10  and  C_11
REMARK    6  A    between atoms: C_15  and  O_16
REMARK    7  A    between atoms: O_16  and  C_17
REMARK                            x       y       z     vdW  Elec       q    Type
REMARK                         _______ _______ _______ _____ _____    ______ ____
ROOT
ATOM      1  N   UNL     1      43.815   4.914   9.913  0.00  0.00    +0.000 N 
ATOM      2  H   UNL     1      44.267   5.812  10.069  0.00  0.00    +0.000 HD
ENDROOT
BRANCH   1   6
ATOM      3  C   UNL     1      46.330   2.388   7.862  0.00  0.00    +0.000 A 
ATOM      4  C   UNL     1      46.324   3.746   7.592  0.00  0.00    +0.000 A 
ATOM      5  N   UNL     1      45.499   4.617   8.234  0.00  0.00    +0.000 NA
ATOM      6  C   UNL     1      44.667   4.091   9.159  0.00  0.00    +0.000 A 
ATOM      7  C   UNL     1      44.686   2.710   9.410  0.00  0.00    +0.000 A 
ATOM      8  N   UNL     1      45.497   1.822   8.776  0.00  0.00    +0.000 NA
BRANCH   3  10
ATOM      9  N   UNL     1      48.384   2.106   6.615  0.00  0.00    +0.000 N 
ATOM     10  C   UNL     1      47.288   1.492   7.158  0.00  0.00    +0.000 C 
ATOM     11  O   UNL     1      47.109   0.284   7.061  0.00  0.00    +0.000 OA
ATOM     12  H   UNL     1      49.057   1.560   6.097  0.00  0.00    +0.000 HD
ATOM     13  H   UNL     1      48.494   3.111   6.697  0.00  0.00    +0.000 HD
ENDBRANCH   3  10
ENDBRANCH   1   6
BRANCH   1  14
ATOM     14  C   UNL     1      43.321   4.323  11.162  0.00  0.00    +0.000 C 
BRANCH  14  15
ATOM     15  C   UNL     1      43.429   5.359  12.288  0.00  0.00    +0.000 C 
BRANCH  15  16
ATOM     16  C   UNL     1      44.840   5.528  12.793  0.00  0.00    +0.000 A 
ATOM     17  C   UNL     1      45.530   6.731  12.600  0.00  0.00    +0.000 A 
ATOM     18  C   UNL     1      46.832   6.881  13.085  0.00  0.00    +0.000 A 
ATOM     19  C   UNL     1      47.460   5.835  13.764  0.00  0.00    +0.000 A 
ATOM     20  C   UNL     1      46.782   4.636  13.961  0.00  0.00    +0.000 A 
ATOM     21  C   UNL     1      45.475   4.488  13.486  0.00  0.00    +0.000 A 
BRANCH  20  22
ATOM     22  O   UNL     1      47.279   3.553  14.640  0.00  0.00    +0.000 OA
BRANCH  22  23
ATOM     23  C   UNL     1      47.950   3.755  15.903  0.00  0.00    +0.000 C 
ATOM     24  C   UNL     1      48.517   2.500  16.613  0.00  0.00    +0.000 C 
ATOM     25  C   UNL     1      47.903   3.006  17.927  0.00  0.00    +0.000 C 
ATOM     26  C   UNL     1      46.982   3.913  17.102  0.00  0.00    +0.000 C 
ENDBRANCH  22  23
ENDBRANCH  20  22
ENDBRANCH  15  16
ENDBRANCH  14  15
ENDBRANCH   1  14
TORSDOF 7
ENDMDL
MODEL 2
REMARK VINA RESULT:    -7.567      1.872      3.843
REMARK INTER + INTRA:         -11.492
REMARK INTER:                 -10.749
REMARK INTRA:                  -0.743
REMARK UNBOUND:                -0.829
REMARK  Name = 
REMARK  7 active torsions:
REMARK  status: ('A' for Active; 'I' for Inactive)
REMARK    1  A    between atoms: C_2  and  C_4
REMARK    2  A    between atoms: C_7  and  N_8
REMARK    3  A    between atoms: N_8  and  C_9
REMARK    4  A    between atoms: C_9  and  C_10
REMARK    5  A    between atoms: C_10  and  C_11
REMARK    6  A    between atoms: C_15  and  O_16
REMARK    7  A    between atoms: O_16  and  C_17
REMARK                            x       y       z     vdW  Elec       q    Type
REMARK                         _______ _______ _______ _____ _____    ______ ____
ROOT
ATOM      1  N   UNL     1      43.792   4.833   9.838  0.00  0.00    +0.000 N 
ATOM      2  H   UNL     1      44.215   5.750   9.957  0.00  0.00    +0.000 HD
ENDROOT
BRANCH   1   6
ATOM      3  C   UNL     1      46.342   2.330   7.802  0.00  0.00    +0.000 A 
ATOM      4  C   UNL     1      46.317   3.687   7.523  0.00  0.00    +0.000 A 
ATOM      5  N   UNL     1      45.479   4.549   8.159  0.00  0.00    +0.000 NA
ATOM      6  C   UNL     1      44.655   4.017   9.088  0.00  0.00    +0.000 A 
ATOM      7  C   UNL     1      44.695   2.639   9.348  0.00  0.00    +0.000 A 
ATOM      8  N   UNL     1      45.518   1.759   8.719  0.00  0.00    +0.000 NA
BRANCH   3  10
ATOM      9  N   UNL     1      48.434   2.061   6.615  0.00  0.00    +0.000 N 
ATOM     10  C   UNL     1      47.313   1.444   7.103  0.00  0.00    +0.000 C 
ATOM     11  O   UNL     1      47.123   0.242   6.963  0.00  0.00    +0.000 OA
ATOM     12  H   UNL     1      49.117   1.522   6.104  0.00  0.00    +0.000 HD
ATOM     13  H   UNL     1      48.552   3.062   6.732  0.00  0.00    +0.000 HD
ENDBRANCH   3  10
ENDBRANCH   1   6
BRANCH   1  14
ATOM     14  C   UNL     1      43.345   4.262  11.114  0.00  0.00    +0.000 C 
BRANCH  14  15
ATOM     15  C   UNL     1      43.539   5.301  12.226  0.00  0.00    +0.000 C 
BRANCH  15  16
ATOM     16  C   UNL     1      44.986   5.480  12.613  0.00  0.00    +0.000 A 
ATOM     17  C   UNL     1      45.573   4.661  13.585  0.00  0.00    +0.000 A 
ATOM     18  C   UNL     1      46.919   4.828  13.925  0.00  0.00    +0.000 A 
ATOM     19  C   UNL     1      47.690   5.811  13.302  0.00  0.00    +0.000 A 
ATOM     20  C   UNL     1      47.115   6.628  12.334  0.00  0.00    +0.000 A 
ATOM     21  C   UNL     1      45.772   6.456  11.986  0.00  0.00    +0.000 A 
BRANCH  20  22
ATOM     22  O   UNL     1      47.777   7.602  11.632  0.00  0.00    +0.000 OA
BRANCH  22  23
ATOM     23  C   UNL     1      48.045   8.873  12.263  0.00  0.00    +0.000 C 
ATOM     24  C   UNL     1      47.028  10.015  12.017  0.00  0.00    +0.000 C 
ATOM     25  C   UNL     1      48.206  10.963  11.745  0.00  0.00    +0.000 C 
ATOM     26  C   UNL     1      49.090   9.733  11.507  0.00  0.00    +0.000 C 
ENDBRANCH  22  23
ENDBRANCH  20  22
ENDBRANCH  15  16
ENDBRANCH  14  15
ENDBRANCH   1  14
TORSDOF 7
ENDMDL
MODEL 3
REMARK VINA RESULT:    -7.284      3.159      7.276
REMARK INTER + INTRA:         -11.093
REMARK INTER:                 -10.271
REMARK INTRA:                  -0.822
REMARK UNBOUND:                -0.829
REMARK  Name = 
REMARK  7 active torsions:
REMARK  status: ('A' for Active; 'I' for Inactive)
REMARK    1  A    between atoms: C_2  and  C_4
REMARK    2  A    between atoms: C_7  and  N_8
REMARK    3  A    between atoms: N_8  and  C_9
REMARK    4  A    between atoms: C_9  and  C_10
REMARK    5  A    between atoms: C_10  and  C_11
REMARK    6  A    between atoms: C_15  and  O_16
REMARK    7  A    between atoms: O_16  and  C_17
REMARK                            x       y       z     vdW  Elec       q    Type
REMARK                         _______ _______ _______ _____ _____    ______ ____
ROOT
ATOM      1  N   UNL     1      47.318   6.367  12.499  0.00  0.00    +0.000 N 
ATOM      2  H   UNL     1      48.118   6.989  12.409  0.00  0.00    +0.000 HD
ENDROOT
BRANCH   1   6
ATOM      3  C   UNL     1      47.549   4.047  15.887  0.00  0.00    +0.000 A 
ATOM      4  C   UNL     1      48.115   5.311  15.861  0.00  0.00    +0.000 A 
ATOM      5  N   UNL     1      48.077   6.107  14.758  0.00  0.00    +0.000 NA
ATOM      6  C   UNL     1      47.457   5.602  13.669  0.00  0.00    +0.000 A 
ATOM      7  C   UNL     1      46.897   4.316  13.718  0.00  0.00    +0.000 A 
ATOM      8  N   UNL     1      46.930   3.502  14.806  0.00  0.00    +0.000 NA
BRANCH   3  10
ATOM      9  N   UNL     1      48.817   3.089  17.711  0.00  0.00    +0.000 N 
ATOM     10  C   UNL     1      47.583   3.241  17.138  0.00  0.00    +0.000 C 
ATOM     11  O   UNL     1      46.578   2.738  17.624  0.00  0.00    +0.000 OA
ATOM     12  H   UNL     1      48.914   2.528  18.545  0.00  0.00    +0.000 HD
ATOM     13  H   UNL     1      49.633   3.504  17.274  0.00  0.00    +0.000 HD
ENDBRANCH   3  10
ENDBRANCH   1   6
BRANCH   1  14
ATOM     14  C   UNL     1      46.045   7.085  12.371  0.00  0.00    +0.000 C 
BRANCH  14  15
ATOM     15  C   UNL     1      45.402   6.734  11.022  0.00  0.00    +0.000 C 
BRANCH  15  16
ATOM     16  C   UNL     1      44.786   5.358  11.008  0.00  0.00    +0.000 A 
ATOM     17  C   UNL     1      43.850   4.984  11.980  0.00  0.00    +0.000 A 
ATOM     18  C   UNL     1      43.274   3.711  11.949  0.00  0.00    +0.000 A 
ATOM     19  C   UNL     1      43.626   2.799  10.953  0.00  0.00    +0.000 A 
ATOM     20  C   UNL     1      44.555   3.162   9.982  0.00  0.00    +0.000 A 
ATOM     21  C   UNL     1      45.124   4.439  10.006  0.00  0.00    +0.000 A 
BRANCH  20  22
ATOM     22  O   UNL     1      44.954   2.368   8.938  0.00  0.00    +0.000 OA
BRANCH  22  23
ATOM     23  C   UNL     1      46.196   2.660   8.260  0.00  0.00    +0.000 C 
ATOM     24  C   UNL     1      46.102   3.305   6.855  0.00  0.00    +0.000 C 
ATOM     25  C   UNL     1      47.154   2.300   6.359  0.00  0.00    +0.000 C 
ATOM     26  C   UNL     1      46.834   1.424   7.576  0.00  0.00    +0.000 C 
ENDBRANCH  22  23
ENDBRANCH  20  22
ENDBRANCH  15  16
ENDBRANCH  14  15
ENDBRANCH   1  14
TORSDOF 7
ENDMDL
MODEL 4
REMARK VINA RESULT:    -6.977      3.861      8.068
REMARK INTER + INTRA:         -10.661
REMARK INTER:                 -10.067
REMARK INTRA:                  -0.594
REMARK UNBOUND:                -0.829
REMARK  Name = 
REMARK  7 active torsions:
REMARK  status: ('A' for Active; 'I' for Inactive)
REMARK    1  A    between atoms: C_2  and  C_4
REMARK    2  A    between atoms: C_7  and  N_8
REMARK    3  A    between atoms: N_8  and  C_9
REMARK    4  A    between atoms: C_9  and  C_10
REMARK    5  A    between atoms: C_10  and  C_11
REMARK    6  A    between atoms: C_15  and  O_16
REMARK    7  A    between atoms: O_16  and  C_17
REMARK                            x       y       z     vdW  Elec       q    Type
REMARK                         _______ _______ _______ _____ _____    ______ ____
ROOT
ATOM      1  N   UNL     1      46.421   5.187  14.336  0.00  0.00    +0.000 N 
ATOM      2  H   UNL     1      45.875   4.391  14.015  0.00  0.00    +0.000 HD
ENDROOT
BRANCH   1   6
ATOM      3  C   UNL     1      49.183   4.054  17.165  0.00  0.00    +0.000 A 
ATOM      4  C   UNL     1      48.194   3.175  16.758  0.00  0.00    +0.000 A 
ATOM      5  N   UNL     1      47.250   3.512  15.837  0.00  0.00    +0.000 NA
ATOM      6  C   UNL     1      47.317   4.762  15.331  0.00  0.00    +0.000 A 
ATOM      7  C   UNL     1      48.325   5.637  15.766  0.00  0.00    +0.000 A 
ATOM      8  N   UNL     1      49.273   5.324  16.689  0.00  0.00    +0.000 NA
BRANCH   3  10
ATOM      9  N   UNL     1      50.737   2.365  17.932  0.00  0.00    +0.000 N 
ATOM     10  C   UNL     1      50.215   3.612  18.143  0.00  0.00    +0.000 C 
ATOM     11  O   UNL     1      50.572   4.312  19.083  0.00  0.00    +0.000 OA
ATOM     12  H   UNL     1      51.418   1.993  18.577  0.00  0.00    +0.000 HD
ATOM     13  H   UNL     1      50.406   1.803  17.154  0.00  0.00    +0.000 HD
ENDBRANCH   3  10
ENDBRANCH   1   6
BRANCH   1  14
ATOM     14  C   UNL     1      47.030   5.922  13.222  0.00  0.00    +0.000 C 
BRANCH  14  15
ATOM     15  C   UNL     1      45.930   6.651  12.438  0.00  0.00    +0.000 C 
BRANCH  15  16
ATOM     16  C   UNL     1      45.257   5.769  11.418  0.00  0.00    +0.000 A 
ATOM     17  C   UNL     1      44.008   5.193  11.683  0.00  0.00    +0.000 A 
ATOM     18  C   UNL     1      43.387   4.388  10.725  0.00  0.00    +0.000 A 
ATOM     19  C   UNL     1      44.003   4.147   9.495  0.00  0.00    +0.000 A 
ATOM     20  C   UNL     1      45.243   4.716   9.222  0.00  0.00    +0.000 A 
ATOM     21  C   UNL     1      45.861   5.530  10.177  0.00  0.00    +0.000 A 
BRANCH  20  22
ATOM     22  O   UNL     1      45.929   4.582   8.042  0.00  0.00    +0.000 OA
BRANCH  22  23
ATOM     23  C   UNL     1      45.811   3.354   7.290  0.00  0.00    +0.000 C 
ATOM     24  C   UNL     1      46.405   2.073   7.928  0.00  0.00    +0.000 C 
ATOM     25  C   UNL     1      47.054   1.740   6.575  0.00  0.00    +0.000 C 
ATOM     26  C   UNL     1      46.873   3.208   6.171  0.00  0.00    +0.000 C 
ENDBRANCH  22  23
ENDBRANCH  20  22
ENDBRANCH  15  16
ENDBRANCH  14  15
ENDBRANCH   1  14
TORSDOF 7
ENDMDL
MODEL 5
REMARK VINA RESULT:    -6.564      4.471      8.199
REMARK INTER + INTRA:         -10.079
REMARK INTER:                  -9.602
REMARK INTRA:                  -0.476
REMARK UNBOUND:                -0.829
REMARK  Name = 
REMARK  7 active torsions:
REMARK  status: ('A' for Active; 'I' for Inactive)
REMARK    1  A    between atoms: C_2  and  C_4
REMARK    2  A    between atoms: C_7  and  N_8
REMARK    3  A    between atoms: N_8  and  C_9
REMARK    4  A    between atoms: C_9  and  C_10
REMARK    5  A    between atoms: C_10  and  C_11
REMARK    6  A    between atoms: C_15  and  O_16
REMARK    7  A    between atoms: O_16  and  C_17
REMARK                            x       y       z     vdW  Elec       q    Type
REMARK                         _______ _______ _______ _____ _____    ______ ____
ROOT
ATOM      1  N   UNL     1      46.922   4.025  16.041  0.00  0.00    +0.000 N 
ATOM      2  H   UNL     1      46.344   3.189  16.022  0.00  0.00    +0.000 HD
ENDROOT
BRANCH   1   6
ATOM      3  C   UNL     1      50.697   3.248  17.476  0.00  0.00    +0.000 A 
ATOM      4  C   UNL     1      49.882   2.215  17.045  0.00  0.00    +0.000 A 
ATOM      5  N   UNL     1      48.621   2.423  16.578  0.00  0.00    +0.000 NA
ATOM      6  C   UNL     1      48.188   3.702  16.556  0.00  0.00    +0.000 A 
ATOM      7  C   UNL     1      49.030   4.731  17.005  0.00  0.00    +0.000 A 
ATOM      8  N   UNL     1      50.289   4.545  17.481  0.00  0.00    +0.000 NA
BRANCH   3  10
ATOM      9  N   UNL     1      52.344   1.657  18.256  0.00  0.00    +0.000 N 
ATOM     10  C   UNL     1      52.084   2.962  17.934  0.00  0.00    +0.000 C 
ATOM     11  O   UNL     1      52.939   3.834  18.027  0.00  0.00    +0.000 OA
ATOM     12  H   UNL     1      53.257   1.401  18.603  0.00  0.00    +0.000 HD
ATOM     13  H   UNL     1      51.609   0.962  18.186  0.00  0.00    +0.000 HD
ENDBRANCH   3  10
ENDBRANCH   1   6
BRANCH   1  14
ATOM     14  C   UNL     1      46.932   4.717  14.747  0.00  0.00    +0.000 C 
BRANCH  14  15
ATOM     15  C   UNL     1      46.751   3.687  13.624  0.00  0.00    +0.000 C 
BRANCH  15  16
ATOM     16  C   UNL     1      45.518   3.940  12.793  0.00  0.00    +0.000 A 
ATOM     17  C   UNL     1      44.586   4.913  13.174  0.00  0.00    +0.000 A 
ATOM     18  C   UNL     1      43.454   5.148  12.389  0.00  0.00    +0.000 A 
ATOM     19  C   UNL     1      43.239   4.418  11.219  0.00  0.00    +0.000 A 
ATOM     20  C   UNL     1      44.161   3.450  10.831  0.00  0.00    +0.000 A 
ATOM     21  C   UNL     1      45.299   3.221  11.611  0.00  0.00    +0.000 A 
BRANCH  20  22
ATOM     22  O   UNL     1      44.077   2.695   9.690  0.00  0.00    +0.000 OA
BRANCH  22  23
ATOM     23  C   UNL     1      44.602   3.222   8.451  0.00  0.00    +0.000 C 
ATOM     24  C   UNL     1      45.827   2.500   7.837  0.00  0.00    +0.000 C 
ATOM     25  C   UNL     1      46.480   3.872   7.607  0.00  0.00    +0.000 C 
ATOM     26  C   UNL     1      45.513   4.461   8.642  0.00  0.00    +0.000 C 
ENDBRANCH  22  23
ENDBRANCH  20  22
ENDBRANCH  15  16
ENDBRANCH  14  15
ENDBRANCH   1  14
TORSDOF 7
ENDMDL
MODEL 6
REMARK VINA RESULT:    -6.439      4.338      8.339
REMARK INTER + INTRA:          -9.904
REMARK INTER:                  -9.272
REMARK INTRA:                  -0.631
REMARK UNBOUND:                -0.829
REMARK  Name = 
REMARK  7 active torsions:
REMARK  status: ('A' for Active; 'I' for Inactive)
REMARK    1  A    between atoms: C_2  and  C_4
REMARK    2  A    between atoms: C_7  and  N_8
REMARK    3  A    between atoms: N_8  and  C_9
REMARK    4  A    between atoms: C_9  and  C_10
REMARK    5  A    between atoms: C_10  and  C_11
REMARK    6  A    between atoms: C_15  and  O_16
REMARK    7  A    between atoms: O_16  and  C_17
REMARK                            x       y       z     vdW  Elec       q    Type
REMARK                         _______ _______ _______ _____ _____    ______ ____
ROOT
ATOM      1  N   UNL     1      46.810   4.654  14.996  0.00  0.00    +0.000 N 
ATOM      2  H   UNL     1      46.563   3.695  14.764  0.00  0.00    +0.000 HD
ENDROOT
BRANCH   1   6
ATOM      3  C   UNL     1      49.201   4.638  18.342  0.00  0.00    +0.000 A 
ATOM      4  C   UNL     1      49.553   5.384  17.230  0.00  0.00    +0.000 A 
ATOM      5  N   UNL     1      48.802   5.407  16.096  0.00  0.00    +0.000 NA
ATOM      6  C   UNL     1      47.680   4.655  16.098  0.00  0.00    +0.000 A 
ATOM      7  C   UNL     1      47.348   3.902  17.235  0.00  0.00    +0.000 A 
ATOM      8  N   UNL     1      48.087   3.859  18.375  0.00  0.00    +0.000 NA
BRANCH   3  10
ATOM      9  N   UNL     1      51.317   4.213  19.435  0.00  0.00    +0.000 N 
ATOM     10  C   UNL     1      50.041   4.689  19.570  0.00  0.00    +0.000 C 
ATOM     11  O   UNL     1      49.621   5.121  20.636  0.00  0.00    +0.000 OA
ATOM     12  H   UNL     1      51.929   4.191  20.238  0.00  0.00    +0.000 HD
ATOM     13  H   UNL     1      51.628   3.845  18.543  0.00  0.00    +0.000 HD
ENDBRANCH   3  10
ENDBRANCH   1   6
BRANCH   1  14
ATOM     14  C   UNL     1      47.287   5.399  13.824  0.00  0.00    +0.000 C 
BRANCH  14  15
ATOM     15  C   UNL     1      46.141   6.255  13.269  0.00  0.00    +0.000 C 
BRANCH  15  16
ATOM     16  C   UNL     1      45.101   5.439  12.544  0.00  0.00    +0.000 A 
ATOM     17  C   UNL     1      43.742   5.764  12.640  0.00  0.00    +0.000 A 
ATOM     18  C   UNL     1      42.788   5.009  11.953  0.00  0.00    +0.000 A 
ATOM     19  C   UNL     1      43.177   3.925  11.164  0.00  0.00    +0.000 A 
ATOM     20  C   UNL     1      44.525   3.595  11.061  0.00  0.00    +0.000 A 
ATOM     21  C   UNL     1      45.482   4.356  11.741  0.00  0.00    +0.000 A 
BRANCH  20  22
ATOM     22  O   UNL     1      45.031   2.578  10.294  0.00  0.00    +0.000 OA
BRANCH  22  23
ATOM     23  C   UNL     1      44.941   2.663   8.855  0.00  0.00    +0.000 C 
ATOM     24  C   UNL     1      46.102   2.047   8.035  0.00  0.00    +0.000 C 
ATOM     25  C   UNL     1      46.122   3.318   7.171  0.00  0.00    +0.000 C 
ATOM     26  C   UNL     1      45.361   4.042   8.288  0.00  0.00    +0.000 C 
ENDBRANCH  22  23
ENDBRANCH  20  22
ENDBRANCH  15  16
ENDBRANCH  14  15
ENDBRANCH   1  14
TORSDOF 7
ENDMDL
MODEL 7
REMARK VINA RESULT:    -6.229      4.008      7.693
REMARK INTER + INTRA:          -9.607
REMARK INTER:                  -8.740
REMARK INTRA:                  -0.867
REMARK UNBOUND:                -0.829
REMARK  Name = 
REMARK  7 active torsions:
REMARK  status: ('A' for Active; 'I' for Inactive)
REMARK    1  A    between atoms: C_2  and  C_4
REMARK    2  A    between atoms: C_7  and  N_8
REMARK    3  A    between atoms: N_8  and  C_9
REMARK    4  A    between atoms: C_9  and  C_10
REMARK    5  A    between atoms: C_10  and  C_11
REMARK    6  A    between atoms: C_15  and  O_16
REMARK    7  A    between atoms: O_16  and  C_17
REMARK                            x       y       z     vdW  Elec       q    Type
REMARK                         _______ _______ _______ _____ _____    ______ ____
ROOT
ATOM      1  N   UNL     1      49.151   7.763  14.723  0.00  0.00    +0.000 N 
ATOM      2  H   UNL     1      48.454   8.503  14.739  0.00  0.00    +0.000 HD
ENDROOT
BRANCH   1   6
ATOM      3  C   UNL     1      47.925   4.559  16.992  0.00  0.00    +0.000 A 
ATOM      4  C   UNL     1      47.628   4.618  15.641  0.00  0.00    +0.000 A 
ATOM      5  N   UNL     1      47.999   5.665  14.855  0.00  0.00    +0.000 NA
ATOM      6  C   UNL     1      48.678   6.664  15.460  0.00  0.00    +0.000 A 
ATOM      7  C   UNL     1      48.961   6.585  16.832  0.00  0.00    +0.000 A 
ATOM      8  N   UNL     1      48.594   5.552  17.637  0.00  0.00    +0.000 NA
BRANCH   3  10
ATOM      9  N   UNL     1      48.336   3.074  18.858  0.00  0.00    +0.000 N 
ATOM     10  C   UNL     1      47.531   3.366  17.790  0.00  0.00    +0.000 C 
ATOM     11  O   UNL     1      46.556   2.680  17.509  0.00  0.00    +0.000 OA
ATOM     12  H   UNL     1      48.141   2.259  19.422  0.00  0.00    +0.000 HD
ATOM     13  H   UNL     1      49.147   3.651  19.053  0.00  0.00    +0.000 HD
ENDBRANCH   3  10
ENDBRANCH   1   6
BRANCH   1  14
ATOM     14  C   UNL     1      49.596   7.454  13.359  0.00  0.00    +0.000 C 
BRANCH  14  15
ATOM     15  C   UNL     1      48.902   8.405  12.375  0.00  0.00    +0.000 C 
BRANCH  15  16
ATOM     16  C   UNL     1      47.480   8.000  12.076  0.00  0.00    +0.000 A 
ATOM     17  C   UNL     1      46.443   8.940  12.130  0.00  0.00    +0.000 A 
ATOM     18  C   UNL     1      45.131   8.557  11.838  0.00  0.00    +0.000 A 
ATOM     19  C   UNL     1      44.840   7.236  11.491  0.00  0.00    +0.000 A 
ATOM     20  C   UNL     1      45.864   6.296  11.434  0.00  0.00    +0.000 A 
ATOM     21  C   UNL     1      47.178   6.681  11.717  0.00  0.00    +0.000 A 
BRANCH  20  22
ATOM     22  O   UNL     1      45.707   4.982  11.074  0.00  0.00    +0.000 OA
BRANCH  22  23
ATOM     23  C   UNL     1      44.848   4.649   9.962  0.00  0.00    +0.000 C 
ATOM     24  C   UNL     1      44.382   3.177   9.843  0.00  0.00    +0.000 C 
ATOM     25  C   UNL     1      44.731   3.221   8.347  0.00  0.00    +0.000 C 
ATOM     26  C   UNL     1      45.612   4.444   8.629  0.00  0.00    +0.000 C 
ENDBRANCH  22  23
ENDBRANCH  20  22
ENDBRANCH  15  16
ENDBRANCH  14  15
ENDBRANCH   1  14
TORSDOF 7
ENDMDL
MODEL 8
REMARK VINA RESULT:    -6.039      3.955      7.648
REMARK INTER + INTRA:          -9.339
REMARK INTER:                  -8.832
REMARK INTRA:                  -0.508
REMARK UNBOUND:                -0.829
REMARK  Name = 
REMARK  7 active torsions:
REMARK  status: ('A' for Active; 'I' for Inactive)
REMARK    1  A    between atoms: C_2  and  C_4
REMARK    2  A    between atoms: C_7  and  N_8
REMARK    3  A    between atoms: N_8  and  C_9
REMARK    4  A    between atoms: C_9  and  C_10
REMARK    5  A    between atoms: C_10  and  C_11
REMARK    6  A    between atoms: C_15  and  O_16
REMARK    7  A    between atoms: O_16  and  C_17
REMARK                            x       y       z     vdW  Elec       q    Type
REMARK                         _______ _______ _______ _____ _____    ______ ____
ROOT
ATOM      1  N   UNL     1      46.292   6.418  13.573  0.00  0.00    +0.000 N 
ATOM      2  H   UNL     1      46.468   5.434  13.388  0.00  0.00    +0.000 HD
ENDROOT
BRANCH   1   6
ATOM      3  C   UNL     1      49.914   8.340  13.260  0.00  0.00    +0.000 A 
ATOM      4  C   UNL     1      48.870   8.918  13.963  0.00  0.00    +0.000 A 
ATOM      5  N   UNL     1      47.650   8.326  14.080  0.00  0.00    +0.000 NA
ATOM      6  C   UNL     1      47.496   7.133  13.466  0.00  0.00    +0.000 A 
ATOM      7  C   UNL     1      48.567   6.571  12.754  0.00  0.00    +0.000 A 
ATOM      8  N   UNL     1      49.791   7.148  12.619  0.00  0.00    +0.000 NA
BRANCH   3  10
ATOM      9  N   UNL     1      52.325   8.208  13.415  0.00  0.00    +0.000 N 
ATOM     10  C   UNL     1      51.240   9.016  13.207  0.00  0.00    +0.000 C 
ATOM     11  O   UNL     1      51.357  10.217  12.998  0.00  0.00    +0.000 OA
ATOM     12  H   UNL     1      53.252   8.610  13.422  0.00  0.00    +0.000 HD
ATOM     13  H   UNL     1      52.193   7.220  13.603  0.00  0.00    +0.000 HD
ENDBRANCH   3  10
ENDBRANCH   1   6
BRANCH   1  14
ATOM     14  C   UNL     1      45.183   6.941  12.765  0.00  0.00    +0.000 C 
BRANCH  14  15
ATOM     15  C   UNL     1      45.472   6.676  11.282  0.00  0.00    +0.000 C 
BRANCH  15  16
ATOM     16  C   UNL     1      45.025   5.307  10.834  0.00  0.00    +0.000 A 
ATOM     17  C   UNL     1      44.348   4.453  11.713  0.00  0.00    +0.000 A 
ATOM     18  C   UNL     1      43.926   3.192  11.283  0.00  0.00    +0.000 A 
ATOM     19  C   UNL     1      44.175   2.770   9.976  0.00  0.00    +0.000 A 
ATOM     20  C   UNL     1      44.846   3.612   9.095  0.00  0.00    +0.000 A 
ATOM     21  C   UNL     1      45.260   4.878   9.522  0.00  0.00    +0.000 A 
BRANCH  20  22
ATOM     22  O   UNL     1      45.118   3.324   7.782  0.00  0.00    +0.000 OA
BRANCH  22  23
ATOM     23  C   UNL     1      46.492   3.198   7.354  0.00  0.00    +0.000 C 
ATOM     24  C   UNL     1      46.754   3.117   5.830  0.00  0.00    +0.000 C 
ATOM     25  C   UNL     1      47.710   1.941   6.089  0.00  0.00    +0.000 C 
ATOM     26  C   UNL     1      47.043   1.753   7.458  0.00  0.00    +0.000 C 
ENDBRANCH  22  23
ENDBRANCH  20  22
ENDBRANCH  15  16
ENDBRANCH  14  15
ENDBRANCH   1  14
TORSDOF 7
ENDMDL
MODEL 9
REMARK VINA RESULT:    -5.951      2.886      4.371
REMARK INTER + INTRA:          -9.215
REMARK INTER:                  -8.295
REMARK INTRA:                  -0.921
REMARK UNBOUND:                -0.829
REMARK  Name = 
REMARK  7 active torsions:
REMARK  status: ('A' for Active; 'I' for Inactive)
REMARK    1  A    between atoms: C_2  and  C_4
REMARK    2  A    between atoms: C_7  and  N_8
REMARK    3  A    between atoms: N_8  and  C_9
REMARK    4  A    between atoms: C_9  and  C_10
REMARK    5  A    between atoms: C_10  and  C_11
REMARK    6  A    between atoms: C_15  and  O_16
REMARK    7  A    between atoms: O_16  and  C_17
REMARK                            x       y       z     vdW  Elec       q    Type
REMARK                         _______ _______ _______ _____ _____    ______ ____
ROOT
ATOM      1  N   UNL     1      45.885   7.554  13.247  0.00  0.00    +0.000 N 
ATOM      2  H   UNL     1      45.139   8.189  13.519  0.00  0.00    +0.000 HD
ENDROOT
BRANCH   1   6
ATOM      3  C   UNL     1      44.393   4.034  11.732  0.00  0.00    +0.000 A 
ATOM      4  C   UNL     1      44.222   5.223  11.044  0.00  0.00    +0.000 A 
ATOM      5  N   UNL     1      44.685   6.414  11.514  0.00  0.00    +0.000 NA
ATOM      6  C   UNL     1      45.325   6.386  12.703  0.00  0.00    +0.000 A 
ATOM      7  C   UNL     1      45.479   5.169  13.385  0.00  0.00    +0.000 A 
ATOM      8  N   UNL     1      45.020   3.971  12.937  0.00  0.00    +0.000 NA
BRANCH   3  10
ATOM      9  N   UNL     1      44.631   2.273  10.089  0.00  0.00    +0.000 N 
ATOM     10  C   UNL     1      43.904   2.757  11.143  0.00  0.00    +0.000 C 
ATOM     11  O   UNL     1      42.912   2.176  11.566  0.00  0.00    +0.000 OA
ATOM     12  H   UNL     1      44.334   1.426   9.625  0.00  0.00    +0.000 HD
ATOM     13  H   UNL     1      45.437   2.787   9.752  0.00  0.00    +0.000 HD
ENDBRANCH   3  10
ENDBRANCH   1   6
BRANCH   1  14
ATOM     14  C   UNL     1      46.890   8.213  12.406  0.00  0.00    +0.000 C 
BRANCH  14  15
ATOM     15  C   UNL     1      48.289   7.745  12.830  0.00  0.00    +0.000 C 
BRANCH  15  16
ATOM     16  C   UNL     1      48.543   7.925  14.306  0.00  0.00    +0.000 A 
ATOM     17  C   UNL     1      48.562   9.204  14.877  0.00  0.00    +0.000 A 
ATOM     18  C   UNL     1      48.785   9.358  16.248  0.00  0.00    +0.000 A 
ATOM     19  C   UNL     1      48.993   8.243  17.061  0.00  0.00    +0.000 A 
ATOM     20  C   UNL     1      48.975   6.969  16.502  0.00  0.00    +0.000 A 
ATOM     21  C   UNL     1      48.742   6.812  15.132  0.00  0.00    +0.000 A 
BRANCH  20  22
ATOM     22  O   UNL     1      49.132   5.800  17.202  0.00  0.00    +0.000 OA
BRANCH  22  23
ATOM     23  C   UNL     1      48.475   4.601  16.735  0.00  0.00    +0.000 C 
ATOM     24  C   UNL     1      47.090   4.268  17.344  0.00  0.00    +0.000 C 
ATOM     25  C   UNL     1      47.557   2.815  17.528  0.00  0.00    +0.000 C 
ATOM     26  C   UNL     1      49.004   3.305  17.400  0.00  0.00    +0.000 C 
ENDBRANCH  22  23
ENDBRANCH  20  22
ENDBRANCH  15  16
ENDBRANCH  14  15
ENDBRANCH   1  14
TORSDOF 7
ENDMDL
