MODEL 1
REMARK VINA RESULT:    -8.348      0.000      0.000
REMARK INTER + INTRA:         -12.320
REMARK INTER:                 -11.276
REMARK INTRA:                  -1.044
REMARK UNBOUND:                -1.044
REMARK  Name = 
REMARK  6 active torsions:
REMARK  status: ('A' for Active; 'I' for Inactive)
REMARK    1  A    between atoms: C_2  and  C_25
REMARK    2  A    between atoms: N_3  and  C_4
REMARK    3  A    between atoms: C_4  and  C_5
REMARK    4  A    between atoms: C_8  and  C_9
REMARK    5  A    between atoms: C_9  and  N_10
REMARK    6  A    between atoms: C_11  and  C_13
REMARK                            x       y       z     vdW  Elec       q    Type
REMARK                         _______ _______ _______ _____ _____    ______ ____
ROOT
ATOM      1  C   UNL     1      44.848   6.119  11.104  0.00  0.00    +0.000 A 
ATOM      2  C   UNL     1      44.437   7.404  11.464  0.00  0.00    +0.000 A 
ATOM      3  C   UNL     1      45.236   8.180  12.301  0.00  0.00    +0.000 A 
ATOM      4  C   UNL     1      46.422   7.639  12.789  0.00  0.00    +0.000 A 
ATOM      5  N   UNL     1      46.846   6.394  12.451  0.00  0.00    +0.000 NA
ATOM      6  C   UNL     1      46.060   5.672  11.620  0.00  0.00    +0.000 A 
ENDROOT
BRANCH   1   7
ATOM      7  C   UNL     1      44.006   5.243  10.226  0.00  0.00    +0.000 C 
BRANCH   7  10
ATOM      8  O   UNL     1      44.802   2.572  10.161  0.00  0.00    +0.000 OA
ATOM      9  C   UNL     1      45.126   3.305   9.234  0.00  0.00    +0.000 C 
ATOM     10  N   UNL     1      44.787   4.640   9.170  0.00  0.00    +0.000 N 
ATOM     11  H   UNL     1      44.881   5.135   8.293  0.00  0.00    +0.000 HD
BRANCH   9  12
ATOM     12  C   UNL     1      45.888   2.764   8.077  0.00  0.00    +0.000 A 
ATOM     13  C   UNL     1      46.365   1.450   8.137  0.00  0.00    +0.000 A 
ATOM     14  C   UNL     1      47.085   0.916   7.067  0.00  0.00    +0.000 A 
ATOM     15  C   UNL     1      47.340   1.697   5.940  0.00  0.00    +0.000 A 
ATOM     16  C   UNL     1      46.886   3.014   5.884  0.00  0.00    +0.000 A 
ATOM     17  C   UNL     1      46.162   3.552   6.951  0.00  0.00    +0.000 A 
ENDBRANCH   9  12
ENDBRANCH   7  10
ENDBRANCH   1   7
BRANCH   4  18
ATOM     18  C   UNL     1      47.285   8.436  13.739  0.00  0.00    +0.000 C 
BRANCH  18  19
ATOM     19  N   UNL     1      47.740   7.656  14.866  0.00  0.00    +0.000 N 
ATOM     20  C   UNL     1      49.027   7.205  14.991  0.00  0.00    +0.000 C 
ATOM     21  O   UNL     1      49.878   7.416  14.131  0.00  0.00    +0.000 OA
ATOM     22  H   UNL     1      47.012   7.284  15.466  0.00  0.00    +0.000 HD
BRANCH  20  23
ATOM     23  C   UNL     1      49.356   6.520  16.247  0.00  0.00    +0.000 A 
ATOM     24  C   UNL     1      50.348   7.035  17.073  0.00  0.00    +0.000 A 
ATOM     25  S   UNL     1      50.579   6.139  18.506  0.00  0.00    +0.000 S 
ATOM     26  C   UNL     1      49.391   5.009  18.056  0.00  0.00    +0.000 A 
ATOM     27  N   UNL     1      49.104   3.939  18.848  0.00  0.00    +0.000 NA
ATOM     28  C   UNL     1      48.206   3.146  18.369  0.00  0.00    +0.000 A 
ATOM     29  N   UNL     1      47.554   3.331  17.178  0.00  0.00    +0.000 N 
ATOM     30  C   UNL     1      47.769   4.427  16.371  0.00  0.00    +0.000 A 
ATOM     31  O   UNL     1      47.098   4.607  15.356  0.00  0.00    +0.000 OA
ATOM     32  C   UNL     1      48.807   5.324  16.844  0.00  0.00    +0.000 A 
ATOM     33  H   UNL     1      46.840   2.690  16.871  0.00  0.00    +0.000 HD
ENDBRANCH  20  23
ENDBRANCH  18  19
ENDBRANCH   4  18
TORSDOF 6
ENDMDL
MODEL 2
REMARK VINA RESULT:    -8.245      2.209      2.620
REMARK INTER + INTRA:         -12.181
REMARK INTER:                 -11.282
REMARK INTRA:                  -0.898
REMARK UNBOUND:                -1.044
REMARK  Name = 
REMARK  6 active torsions:
REMARK  status: ('A' for Active; 'I' for Inactive)
REMARK    1  A    between atoms: C_2  and  C_25
REMARK    2  A    between atoms: N_3  and  C_4
REMARK    3  A    between atoms: C_4  and  C_5
REMARK    4  A    between atoms: C_8  and  C_9
REMARK    5  A    between atoms: C_9  and  N_10
REMARK    6  A    between atoms: C_11  and  C_13
REMARK                            x       y       z     vdW  Elec       q    Type
REMARK                         _______ _______ _______ _____ _____    ______ ____
ROOT
ATOM      1  C   UNL     1      45.725   4.246  12.715  0.00  0.00    +0.000 A 
ATOM      2  C   UNL     1      45.647   5.621  12.485  0.00  0.00    +0.000 A 
ATOM      3  C   UNL     1      46.465   6.492  13.200  0.00  0.00    +0.000 A 
ATOM      4  C   UNL     1      47.330   5.970  14.158  0.00  0.00    +0.000 A 
ATOM      5  N   UNL     1      47.427   4.636  14.397  0.00  0.00    +0.000 NA
ATOM      6  C   UNL     1      46.635   3.813  13.674  0.00  0.00    +0.000 A 
ENDROOT
BRANCH   1   7
ATOM      7  C   UNL     1      44.844   3.276  11.986  0.00  0.00    +0.000 C 
BRANCH   7  10
ATOM      8  O   UNL     1      44.086   4.034   9.413  0.00  0.00    +0.000 OA
ATOM      9  C   UNL     1      45.013   3.244   9.544  0.00  0.00    +0.000 C 
ATOM     10  N   UNL     1      45.466   2.803  10.770  0.00  0.00    +0.000 N 
ATOM     11  H   UNL     1      46.362   2.340  10.831  0.00  0.00    +0.000 HD
BRANCH   9  12
ATOM     12  C   UNL     1      45.748   2.741   8.353  0.00  0.00    +0.000 A 
ATOM     13  C   UNL     1      45.968   3.610   7.278  0.00  0.00    +0.000 A 
ATOM     14  C   UNL     1      46.653   3.164   6.146  0.00  0.00    +0.000 A 
ATOM     15  C   UNL     1      47.108   1.848   6.080  0.00  0.00    +0.000 A 
ATOM     16  C   UNL     1      46.872   0.972   7.139  0.00  0.00    +0.000 A 
ATOM     17  C   UNL     1      46.190   1.413   8.276  0.00  0.00    +0.000 A 
ENDBRANCH   9  12
ENDBRANCH   7  10
ENDBRANCH   1   7
BRANCH   4  18
ATOM     18  C   UNL     1      48.194   6.892  14.985  0.00  0.00    +0.000 C 
BRANCH  18  19
ATOM     19  N   UNL     1      49.331   6.219  15.567  0.00  0.00    +0.000 N 
ATOM     20  C   UNL     1      49.427   5.934  16.903  0.00  0.00    +0.000 C 
ATOM     21  O   UNL     1      48.554   6.259  17.703  0.00  0.00    +0.000 OA
ATOM     22  H   UNL     1      50.150   6.145  14.972  0.00  0.00    +0.000 HD
BRANCH  20  23
ATOM     23  C   UNL     1      50.597   5.149  17.317  0.00  0.00    +0.000 A 
ATOM     24  C   UNL     1      51.740   5.800  17.763  0.00  0.00    +0.000 A 
ATOM     25  S   UNL     1      52.991   4.741  18.237  0.00  0.00    +0.000 S 
ATOM     26  C   UNL     1      52.064   3.375  17.825  0.00  0.00    +0.000 A 
ATOM     27  N   UNL     1      52.568   2.119  17.964  0.00  0.00    +0.000 NA
ATOM     28  C   UNL     1      51.770   1.179  17.584  0.00  0.00    +0.000 A 
ATOM     29  N   UNL     1      50.506   1.377  17.093  0.00  0.00    +0.000 N 
ATOM     30  C   UNL     1      49.933   2.625  16.989  0.00  0.00    +0.000 A 
ATOM     31  O   UNL     1      48.762   2.756  16.633  0.00  0.00    +0.000 OA
ATOM     32  C   UNL     1      50.810   3.720  17.359  0.00  0.00    +0.000 A 
ATOM     33  H   UNL     1      49.919   0.599  16.840  0.00  0.00    +0.000 HD
ENDBRANCH  20  23
ENDBRANCH  18  19
ENDBRANCH   4  18
TORSDOF 6
ENDMDL
MODEL 3
REMARK VINA RESULT:    -8.152      2.532      3.109
REMARK INTER + INTRA:         -12.056
REMARK INTER:                 -11.140
REMARK INTRA:                  -0.916
REMARK UNBOUND:                -1.044
REMARK  Name = 
REMARK  6 active torsions:
REMARK  status: ('A' for Active; 'I' for Inactive)
REMARK    1  A    between atoms: C_2  and  C_25
REMARK    2  A    between atoms: N_3  and  C_4
REMARK    3  A    between atoms: C_4  and  C_5
REMARK    4  A    between atoms: C_8  and  C_9
REMARK    5  A    between atoms: C_9  and  N_10
REMARK    6  A    between atoms: C_11  and  C_13
REMARK                            x       y       z     vdW  Elec       q    Type
REMARK                         _______ _______ _______ _____ _____    ______ ____
ROOT
ATOM      1  C   UNL     1      45.692   4.325  12.541  0.00  0.00    +0.000 A 
ATOM      2  C   UNL     1      45.741   5.703  12.321  0.00  0.00    +0.000 A 
ATOM      3  C   UNL     1      46.619   6.493  13.059  0.00  0.00    +0.000 A 
ATOM      4  C   UNL     1      47.414   5.889  14.030  0.00  0.00    +0.000 A 
ATOM      5  N   UNL     1      47.388   4.551  14.259  0.00  0.00    +0.000 NA
ATOM      6  C   UNL     1      46.540   3.806  13.513  0.00  0.00    +0.000 A 
ENDROOT
BRANCH   1   7
ATOM      7  C   UNL     1      44.743   3.443  11.786  0.00  0.00    +0.000 C 
BRANCH   7  10
ATOM      8  O   UNL     1      44.313   4.327   9.179  0.00  0.00    +0.000 OA
ATOM      9  C   UNL     1      45.083   3.392   9.363  0.00  0.00    +0.000 C 
ATOM     10  N   UNL     1      45.364   2.877  10.610  0.00  0.00    +0.000 N 
ATOM     11  H   UNL     1      46.163   2.269  10.728  0.00  0.00    +0.000 HD
BRANCH   9  12
ATOM     12  C   UNL     1      45.809   2.777   8.219  0.00  0.00    +0.000 A 
ATOM     13  C   UNL     1      46.052   3.551   7.079  0.00  0.00    +0.000 A 
ATOM     14  C   UNL     1      46.729   2.999   5.989  0.00  0.00    +0.000 A 
ATOM     15  C   UNL     1      47.152   1.671   6.031  0.00  0.00    +0.000 A 
ATOM     16  C   UNL     1      46.892   0.889   7.157  0.00  0.00    +0.000 A 
ATOM     17  C   UNL     1      46.218   1.437   8.251  0.00  0.00    +0.000 A 
ENDBRANCH   9  12
ENDBRANCH   7  10
ENDBRANCH   1   7
BRANCH   4  18
ATOM     18  C   UNL     1      48.339   6.726  14.881  0.00  0.00    +0.000 C 
BRANCH  18  19
ATOM     19  N   UNL     1      48.169   6.482  16.295  0.00  0.00    +0.000 N 
ATOM     20  C   UNL     1      49.101   5.831  17.058  0.00  0.00    +0.000 C 
ATOM     21  O   UNL     1      50.140   5.385  16.578  0.00  0.00    +0.000 OA
ATOM     22  H   UNL     1      47.234   6.638  16.658  0.00  0.00    +0.000 HD
BRANCH  20  23
ATOM     23  C   UNL     1      48.826   5.760  18.498  0.00  0.00    +0.000 A 
ATOM     24  C   UNL     1      49.101   4.590  19.195  0.00  0.00    +0.000 A 
ATOM     25  S   UNL     1      48.757   4.689  20.863  0.00  0.00    +0.000 S 
ATOM     26  C   UNL     1      48.191   6.285  20.707  0.00  0.00    +0.000 A 
ATOM     27  N   UNL     1      47.709   6.967  21.782  0.00  0.00    +0.000 NA
ATOM     28  C   UNL     1      47.285   8.156  21.514  0.00  0.00    +0.000 A 
ATOM     29  N   UNL     1      47.311   8.733  20.271  0.00  0.00    +0.000 N 
ATOM     30  C   UNL     1      47.840   8.105  19.166  0.00  0.00    +0.000 A 
ATOM     31  O   UNL     1      47.933   8.691  18.089  0.00  0.00    +0.000 OA
ATOM     32  C   UNL     1      48.288   6.746  19.408  0.00  0.00    +0.000 A 
ATOM     33  H   UNL     1      46.990   9.678  20.131  0.00  0.00    +0.000 HD
ENDBRANCH  20  23
ENDBRANCH  18  19
ENDBRANCH   4  18
TORSDOF 6
ENDMDL
MODEL 4
REMARK VINA RESULT:    -7.876      1.393      1.551
REMARK INTER + INTRA:         -11.682
REMARK INTER:                 -10.795
REMARK INTRA:                  -0.887
REMARK UNBOUND:                -1.044
REMARK  Name = 
REMARK  6 active torsions:
REMARK  status: ('A' for Active; 'I' for Inactive)
REMARK    1  A    between atoms: C_2  and  C_25
REMARK    2  A    between atoms: N_3  and  C_4
REMARK    3  A    between atoms: C_4  and  C_5
REMARK    4  A    between atoms: C_8  and  C_9
REMARK    5  A    between atoms: C_9  and  N_10
REMARK    6  A    between atoms: C_11  and  C_13
REMARK                            x       y       z     vdW  Elec       q    Type
REMARK                         _______ _______ _______ _____ _____    ______ ____
ROOT
ATOM      1  C   UNL     1      45.530   4.787  12.258  0.00  0.00    +0.000 A 
ATOM      2  C   UNL     1      45.360   6.108  11.838  0.00  0.00    +0.000 A 
ATOM      3  C   UNL     1      46.129   7.122  12.402  0.00  0.00    +0.000 A 
ATOM      4  C   UNL     1      47.040   6.797  13.404  0.00  0.00    +0.000 A 
ATOM      5  N   UNL     1      47.228   5.521  13.827  0.00  0.00    +0.000 NA
ATOM      6  C   UNL     1      46.480   4.554  13.247  0.00  0.00    +0.000 A 
ENDROOT
BRANCH   1   7
ATOM      7  C   UNL     1      44.704   3.671  11.696  0.00  0.00    +0.000 C 
BRANCH   7  10
ATOM      8  O   UNL     1      44.147   4.277   9.033  0.00  0.00    +0.000 OA
ATOM      9  C   UNL     1      44.997   3.430   9.277  0.00  0.00    +0.000 C 
ATOM     10  N   UNL     1      45.347   3.055  10.557  0.00  0.00    +0.000 N 
ATOM     11  H   UNL     1      46.198   2.529  10.706  0.00  0.00    +0.000 HD
BRANCH   9  12
ATOM     12  C   UNL     1      45.750   2.777   8.173  0.00  0.00    +0.000 A 
ATOM     13  C   UNL     1      46.170   1.452   8.334  0.00  0.00    +0.000 A 
ATOM     14  C   UNL     1      46.880   0.814   7.315  0.00  0.00    +0.000 A 
ATOM     15  C   UNL     1      47.182   1.501   6.140  0.00  0.00    +0.000 A 
ATOM     16  C   UNL     1      46.784   2.829   5.983  0.00  0.00    +0.000 A 
ATOM     17  C   UNL     1      46.071   3.471   6.999  0.00  0.00    +0.000 A 
ENDBRANCH   9  12
ENDBRANCH   7  10
ENDBRANCH   1   7
BRANCH   4  18
ATOM     18  C   UNL     1      47.854   7.881  14.071  0.00  0.00    +0.000 C 
BRANCH  18  19
ATOM     19  N   UNL     1      48.105   7.610  15.467  0.00  0.00    +0.000 N 
ATOM     20  C   UNL     1      49.297   7.119  15.929  0.00  0.00    +0.000 C 
ATOM     21  O   UNL     1      50.229   6.852  15.175  0.00  0.00    +0.000 OA
ATOM     22  H   UNL     1      47.288   7.609  16.068  0.00  0.00    +0.000 HD
BRANCH  20  23
ATOM     23  C   UNL     1      49.430   7.002  17.386  0.00  0.00    +0.000 A 
ATOM     24  C   UNL     1      50.007   8.038  18.111  0.00  0.00    +0.000 A 
ATOM     25  S   UNL     1      50.052   7.756  19.793  0.00  0.00    +0.000 S 
ATOM     26  C   UNL     1      49.338   6.223  19.609  0.00  0.00    +0.000 A 
ATOM     27  N   UNL     1      49.114   5.420  20.686  0.00  0.00    +0.000 NA
ATOM     28  C   UNL     1      48.596   4.274  20.398  0.00  0.00    +0.000 A 
ATOM     29  N   UNL     1      48.266   3.860  19.134  0.00  0.00    +0.000 N 
ATOM     30  C   UNL     1      48.421   4.658  18.022  0.00  0.00    +0.000 A 
ATOM     31  O   UNL     1      48.025   4.289  16.918  0.00  0.00    +0.000 OA
ATOM     32  C   UNL     1      49.044   5.941  18.289  0.00  0.00    +0.000 A 
ATOM     33  H   UNL     1      47.837   2.962  18.977  0.00  0.00    +0.000 HD
ENDBRANCH  20  23
ENDBRANCH  18  19
ENDBRANCH   4  18
TORSDOF 6
ENDMDL
MODEL 5
REMARK VINA RESULT:    -7.258      3.839      6.871
REMARK INTER + INTRA:         -10.847
REMARK INTER:                  -9.830
REMARK INTRA:                  -1.018
REMARK UNBOUND:                -1.044
REMARK  Name = 
REMARK  6 active torsions:
REMARK  status: ('A' for Active; 'I' for Inactive)
REMARK    1  A    between atoms: C_2  and  C_25
REMARK    2  A    between atoms: N_3  and  C_4
REMARK    3  A    between atoms: C_4  and  C_5
REMARK    4  A    between atoms: C_8  and  C_9
REMARK    5  A    between atoms: C_9  and  N_10
REMARK    6  A    between atoms: C_11  and  C_13
REMARK                            x       y       z     vdW  Elec       q    Type
REMARK                         _______ _______ _______ _____ _____    ______ ____
ROOT
ATOM      1  C   UNL     1      44.901   9.217  11.891  0.00  0.00    +0.000 A 
ATOM      2  C   UNL     1      45.904   9.069  12.851  0.00  0.00    +0.000 A 
ATOM      3  C   UNL     1      46.325   7.795  13.225  0.00  0.00    +0.000 A 
ATOM      4  C   UNL     1      45.709   6.687  12.649  0.00  0.00    +0.000 A 
ATOM      5  N   UNL     1      44.735   6.805  11.710  0.00  0.00    +0.000 NA
ATOM      6  C   UNL     1      44.361   8.055  11.352  0.00  0.00    +0.000 A 
ENDROOT
BRANCH   1   7
ATOM      7  C   UNL     1      44.402  10.569  11.480  0.00  0.00    +0.000 C 
BRANCH   7  10
ATOM      8  O   UNL     1      42.063  10.591   9.963  0.00  0.00    +0.000 OA
ATOM      9  C   UNL     1      41.987  10.816  11.165  0.00  0.00    +0.000 C 
ATOM     10  N   UNL     1      43.081  10.831  12.004  0.00  0.00    +0.000 N 
ATOM     11  H   UNL     1      42.940  10.795  13.005  0.00  0.00    +0.000 HD
BRANCH   9  12
ATOM     12  C   UNL     1      40.664  11.046  11.806  0.00  0.00    +0.000 A 
ATOM     13  C   UNL     1      39.558  10.320  11.351  0.00  0.00    +0.000 A 
ATOM     14  C   UNL     1      38.304  10.517  11.932  0.00  0.00    +0.000 A 
ATOM     15  C   UNL     1      38.149  11.448  12.958  0.00  0.00    +0.000 A 
ATOM     16  C   UNL     1      39.244  12.191  13.399  0.00  0.00    +0.000 A 
ATOM     17  C   UNL     1      40.502  11.995  12.824  0.00  0.00    +0.000 A 
ENDBRANCH   9  12
ENDBRANCH   7  10
ENDBRANCH   1   7
BRANCH   4  18
ATOM     18  C   UNL     1      46.108   5.292  13.070  0.00  0.00    +0.000 C 
BRANCH  18  19
ATOM     19  N   UNL     1      46.631   5.244  14.416  0.00  0.00    +0.000 N 
ATOM     20  C   UNL     1      47.238   4.135  14.941  0.00  0.00    +0.000 C 
ATOM     21  O   UNL     1      47.355   3.092  14.304  0.00  0.00    +0.000 OA
ATOM     22  H   UNL     1      46.347   6.004  15.025  0.00  0.00    +0.000 HD
BRANCH  20  23
ATOM     23  C   UNL     1      47.812   4.284  16.284  0.00  0.00    +0.000 A 
ATOM     24  C   UNL     1      47.448   3.398  17.291  0.00  0.00    +0.000 A 
ATOM     25  S   UNL     1      48.231   3.691  18.778  0.00  0.00    +0.000 S 
ATOM     26  C   UNL     1      49.055   5.036  18.141  0.00  0.00    +0.000 A 
ATOM     27  N   UNL     1      49.892   5.777  18.917  0.00  0.00    +0.000 NA
ATOM     28  C   UNL     1      50.426   6.786  18.314  0.00  0.00    +0.000 A 
ATOM     29  N   UNL     1      50.212   7.115  17.001  0.00  0.00    +0.000 N 
ATOM     30  C   UNL     1      49.419   6.362  16.162  0.00  0.00    +0.000 A 
ATOM     31  O   UNL     1      49.327   6.634  14.966  0.00  0.00    +0.000 OA
ATOM     32  C   UNL     1      48.759   5.243  16.807  0.00  0.00    +0.000 A 
ATOM     33  H   UNL     1      50.681   7.900  16.579  0.00  0.00    +0.000 HD
ENDBRANCH  20  23
ENDBRANCH  18  19
ENDBRANCH   4  18
TORSDOF 6
ENDMDL
MODEL 6
REMARK VINA RESULT:    -7.171      3.067      3.434
REMARK INTER + INTRA:         -10.730
REMARK INTER:                  -9.954
REMARK INTRA:                  -0.776
REMARK UNBOUND:                -1.044
REMARK  Name = 
REMARK  6 active torsions:
REMARK  status: ('A' for Active; 'I' for Inactive)
REMARK    1  A    between atoms: C_2  and  C_25
REMARK    2  A    between atoms: N_3  and  C_4
REMARK    3  A    between atoms: C_4  and  C_5
REMARK    4  A    between atoms: C_8  and  C_9
REMARK    5  A    between atoms: C_9  and  N_10
REMARK    6  A    between atoms: C_11  and  C_13
REMARK                            x       y       z     vdW  Elec       q    Type
REMARK                         _______ _______ _______ _____ _____    ______ ____
ROOT
ATOM      1  C   UNL     1      45.732   5.186  12.193  0.00  0.00    +0.000 A 
ATOM      2  C   UNL     1      46.285   6.452  11.995  0.00  0.00    +0.000 A 
ATOM      3  C   UNL     1      47.304   6.905  12.830  0.00  0.00    +0.000 A 
ATOM      4  C   UNL     1      47.732   6.087  13.872  0.00  0.00    +0.000 A 
ATOM      5  N   UNL     1      47.214   4.849  14.083  0.00  0.00    +0.000 NA
ATOM      6  C   UNL     1      46.240   4.429  13.243  0.00  0.00    +0.000 A 
ENDROOT
BRANCH   1   7
ATOM      7  C   UNL     1      44.617   4.672  11.333  0.00  0.00    +0.000 C 
BRANCH   7  10
ATOM      8  O   UNL     1      45.472   5.406   8.784  0.00  0.00    +0.000 OA
ATOM      9  C   UNL     1      45.502   4.222   9.096  0.00  0.00    +0.000 C 
ATOM     10  N   UNL     1      45.100   3.752  10.328  0.00  0.00    +0.000 N 
ATOM     11  H   UNL     1      45.355   2.815  10.610  0.00  0.00    +0.000 HD
BRANCH   9  12
ATOM     12  C   UNL     1      46.031   3.205   8.146  0.00  0.00    +0.000 A 
ATOM     13  C   UNL     1      46.065   1.864   8.544  0.00  0.00    +0.000 A 
ATOM     14  C   UNL     1      46.558   0.888   7.675  0.00  0.00    +0.000 A 
ATOM     15  C   UNL     1      47.030   1.252   6.414  0.00  0.00    +0.000 A 
ATOM     16  C   UNL     1      47.019   2.591   6.022  0.00  0.00    +0.000 A 
ATOM     17  C   UNL     1      46.523   3.570   6.886  0.00  0.00    +0.000 A 
ENDBRANCH   9  12
ENDBRANCH   7  10
ENDBRANCH   1   7
BRANCH   4  18
ATOM     18  C   UNL     1      48.799   6.568  14.826  0.00  0.00    +0.000 C 
BRANCH  18  19
ATOM     19  N   UNL     1      48.281   7.453  15.843  0.00  0.00    +0.000 N 
ATOM     20  C   UNL     1      48.983   7.787  16.970  0.00  0.00    +0.000 C 
ATOM     21  O   UNL     1      50.099   7.331  17.202  0.00  0.00    +0.000 OA
ATOM     22  H   UNL     1      47.289   7.658  15.783  0.00  0.00    +0.000 HD
BRANCH  20  23
ATOM     23  C   UNL     1      48.360   8.783  17.851  0.00  0.00    +0.000 A 
ATOM     24  C   UNL     1      48.176  10.084  17.398  0.00  0.00    +0.000 A 
ATOM     25  S   UNL     1      47.409  11.102  18.531  0.00  0.00    +0.000 S 
ATOM     26  C   UNL     1      47.331   9.852  19.683  0.00  0.00    +0.000 A 
ATOM     27  N   UNL     1      46.800  10.068  20.917  0.00  0.00    +0.000 NA
ATOM     28  C   UNL     1      46.833   9.042  21.699  0.00  0.00    +0.000 A 
ATOM     29  N   UNL     1      47.335   7.814  21.357  0.00  0.00    +0.000 N 
ATOM     30  C   UNL     1      47.830   7.532  20.102  0.00  0.00    +0.000 A 
ATOM     31  O   UNL     1      48.183   6.393  19.803  0.00  0.00    +0.000 OA
ATOM     32  C   UNL     1      47.857   8.669  19.201  0.00  0.00    +0.000 A 
ATOM     33  H   UNL     1      47.307   7.042  22.004  0.00  0.00    +0.000 HD
ENDBRANCH  20  23
ENDBRANCH  18  19
ENDBRANCH   4  18
TORSDOF 6
ENDMDL
MODEL 7
REMARK VINA RESULT:    -7.141      3.772      8.688
REMARK INTER + INTRA:         -10.690
REMARK INTER:                  -9.630
REMARK INTRA:                  -1.060
REMARK UNBOUND:                -1.044
REMARK  Name = 
REMARK  6 active torsions:
REMARK  status: ('A' for Active; 'I' for Inactive)
REMARK    1  A    between atoms: C_2  and  C_25
REMARK    2  A    between atoms: N_3  and  C_4
REMARK    3  A    between atoms: C_4  and  C_5
REMARK    4  A    between atoms: C_8  and  C_9
REMARK    5  A    between atoms: C_9  and  N_10
REMARK    6  A    between atoms: C_11  and  C_13
REMARK                            x       y       z     vdW  Elec       q    Type
REMARK                         _______ _______ _______ _____ _____    ______ ____
ROOT
ATOM      1  C   UNL     1      49.525   5.680  17.068  0.00  0.00    +0.000 A 
ATOM      2  C   UNL     1      50.274   6.713  16.500  0.00  0.00    +0.000 A 
ATOM      3  C   UNL     1      49.908   7.238  15.264  0.00  0.00    +0.000 A 
ATOM      4  C   UNL     1      48.810   6.696  14.601  0.00  0.00    +0.000 A 
ATOM      5  N   UNL     1      48.063   5.694  15.133  0.00  0.00    +0.000 NA
ATOM      6  C   UNL     1      48.431   5.218  16.345  0.00  0.00    +0.000 A 
ENDROOT
BRANCH   1   7
ATOM      7  C   UNL     1      49.900   5.070  18.385  0.00  0.00    +0.000 C 
BRANCH   7  10
ATOM      8  O   UNL     1      50.051   2.403  17.591  0.00  0.00    +0.000 OA
ATOM      9  C   UNL     1      51.086   2.989  17.881  0.00  0.00    +0.000 C 
ATOM     10  N   UNL     1      51.123   4.306  18.288  0.00  0.00    +0.000 N 
ATOM     11  H   UNL     1      52.006   4.799  18.296  0.00  0.00    +0.000 HD
BRANCH   9  12
ATOM     12  C   UNL     1      52.400   2.301  17.765  0.00  0.00    +0.000 A 
ATOM     13  C   UNL     1      53.571   3.055  17.899  0.00  0.00    +0.000 A 
ATOM     14  C   UNL     1      54.818   2.436  17.792  0.00  0.00    +0.000 A 
ATOM     15  C   UNL     1      54.898   1.068  17.538  0.00  0.00    +0.000 A 
ATOM     16  C   UNL     1      53.734   0.316  17.381  0.00  0.00    +0.000 A 
ATOM     17  C   UNL     1      52.484   0.929  17.490  0.00  0.00    +0.000 A 
ENDBRANCH   9  12
ENDBRANCH   7  10
ENDBRANCH   1   7
BRANCH   4  18
ATOM     18  C   UNL     1      48.418   7.209  13.235  0.00  0.00    +0.000 C 
BRANCH  18  19
ATOM     19  N   UNL     1      47.568   6.289  12.517  0.00  0.00    +0.000 N 
ATOM     20  C   UNL     1      46.499   6.694  11.763  0.00  0.00    +0.000 C 
ATOM     21  O   UNL     1      46.177   7.875  11.669  0.00  0.00    +0.000 OA
ATOM     22  H   UNL     1      47.676   5.309  12.759  0.00  0.00    +0.000 HD
BRANCH  20  23
ATOM     23  C   UNL     1      45.803   5.644  11.008  0.00  0.00    +0.000 A 
ATOM     24  C   UNL     1      45.876   5.631   9.620  0.00  0.00    +0.000 A 
ATOM     25  S   UNL     1      45.041   4.327   8.903  0.00  0.00    +0.000 S 
ATOM     26  C   UNL     1      44.519   3.757  10.418  0.00  0.00    +0.000 A 
ATOM     27  N   UNL     1      43.722   2.658  10.517  0.00  0.00    +0.000 NA
ATOM     28  C   UNL     1      43.377   2.356  11.724  0.00  0.00    +0.000 A 
ATOM     29  N   UNL     1      43.767   3.043  12.843  0.00  0.00    +0.000 N 
ATOM     30  C   UNL     1      44.618   4.125  12.798  0.00  0.00    +0.000 A 
ATOM     31  O   UNL     1      45.021   4.657  13.831  0.00  0.00    +0.000 OA
ATOM     32  C   UNL     1      44.997   4.532  11.457  0.00  0.00    +0.000 A 
ATOM     33  H   UNL     1      43.486   2.741  13.762  0.00  0.00    +0.000 HD
ENDBRANCH  20  23
ENDBRANCH  18  19
ENDBRANCH   4  18
TORSDOF 6
ENDMDL
MODEL 8
REMARK VINA RESULT:    -7.095      2.380      3.289
REMARK INTER + INTRA:         -10.628
REMARK INTER:                  -9.736
REMARK INTRA:                  -0.892
REMARK UNBOUND:                -1.044
REMARK  Name = 
REMARK  6 active torsions:
REMARK  status: ('A' for Active; 'I' for Inactive)
REMARK    1  A    between atoms: C_2  and  C_25
REMARK    2  A    between atoms: N_3  and  C_4
REMARK    3  A    between atoms: C_4  and  C_5
REMARK    4  A    between atoms: C_8  and  C_9
REMARK    5  A    between atoms: C_9  and  N_10
REMARK    6  A    between atoms: C_11  and  C_13
REMARK                            x       y       z     vdW  Elec       q    Type
REMARK                         _______ _______ _______ _____ _____    ______ ____
ROOT
ATOM      1  C   UNL     1      46.276   6.966  12.364  0.00  0.00    +0.000 A 
ATOM      2  C   UNL     1      46.363   8.261  12.880  0.00  0.00    +0.000 A 
ATOM      3  C   UNL     1      47.291   8.551  13.877  0.00  0.00    +0.000 A 
ATOM      4  C   UNL     1      48.098   7.526  14.363  0.00  0.00    +0.000 A 
ATOM      5  N   UNL     1      48.036   6.260  13.876  0.00  0.00    +0.000 NA
ATOM      6  C   UNL     1      47.140   6.013  12.894  0.00  0.00    +0.000 A 
ENDROOT
BRANCH   1   7
ATOM      7  C   UNL     1      45.275   6.606  11.309  0.00  0.00    +0.000 C 
BRANCH   7  10
ATOM      8  O   UNL     1      43.744   4.595  10.134  0.00  0.00    +0.000 OA
ATOM      9  C   UNL     1      44.942   4.647   9.880  0.00  0.00    +0.000 C 
ATOM     10  N   UNL     1      45.788   5.598  10.410  0.00  0.00    +0.000 N 
ATOM     11  H   UNL     1      46.702   5.734   9.998  0.00  0.00    +0.000 HD
BRANCH   9  12
ATOM     12  C   UNL     1      45.552   3.683   8.925  0.00  0.00    +0.000 A 
ATOM     13  C   UNL     1      46.208   4.179   7.793  0.00  0.00    +0.000 A 
ATOM     14  C   UNL     1      46.788   3.298   6.878  0.00  0.00    +0.000 A 
ATOM     15  C   UNL     1      46.704   1.922   7.085  0.00  0.00    +0.000 A 
ATOM     16  C   UNL     1      46.033   1.423   8.201  0.00  0.00    +0.000 A 
ATOM     17  C   UNL     1      45.453   2.299   9.121  0.00  0.00    +0.000 A 
ENDBRANCH   9  12
ENDBRANCH   7  10
ENDBRANCH   1   7
BRANCH   4  18
ATOM     18  C   UNL     1      49.079   7.797  15.480  0.00  0.00    +0.000 C 
BRANCH  18  19
ATOM     19  N   UNL     1      49.769   6.606  15.917  0.00  0.00    +0.000 N 
ATOM     20  C   UNL     1      49.374   5.871  17.003  0.00  0.00    +0.000 C 
ATOM     21  O   UNL     1      48.414   6.196  17.696  0.00  0.00    +0.000 OA
ATOM     22  H   UNL     1      50.682   6.450  15.503  0.00  0.00    +0.000 HD
BRANCH  20  23
ATOM     23  C   UNL     1      50.116   4.629  17.251  0.00  0.00    +0.000 A 
ATOM     24  C   UNL     1      49.466   3.405  17.142  0.00  0.00    +0.000 A 
ATOM     25  S   UNL     1      50.479   2.063  17.427  0.00  0.00    +0.000 S 
ATOM     26  C   UNL     1      51.814   3.069  17.744  0.00  0.00    +0.000 A 
ATOM     27  N   UNL     1      53.022   2.544  18.088  0.00  0.00    +0.000 NA
ATOM     28  C   UNL     1      53.936   3.423  18.331  0.00  0.00    +0.000 A 
ATOM     29  N   UNL     1      53.759   4.779  18.247  0.00  0.00    +0.000 N 
ATOM     30  C   UNL     1      52.573   5.354  17.847  0.00  0.00    +0.000 A 
ATOM     31  O   UNL     1      52.480   6.571  17.692  0.00  0.00    +0.000 OA
ATOM     32  C   UNL     1      51.499   4.408  17.608  0.00  0.00    +0.000 A 
ATOM     33  H   UNL     1      54.521   5.414  18.422  0.00  0.00    +0.000 HD
ENDBRANCH  20  23
ENDBRANCH  18  19
ENDBRANCH   4  18
TORSDOF 6
ENDMDL
MODEL 9
REMARK VINA RESULT:    -6.687      4.128     10.137
REMARK INTER + INTRA:         -10.076
REMARK INTER:                  -9.280
REMARK INTRA:                  -0.796
REMARK UNBOUND:                -1.044
REMARK  Name = 
REMARK  6 active torsions:
REMARK  status: ('A' for Active; 'I' for Inactive)
REMARK    1  A    between atoms: C_2  and  C_25
REMARK    2  A    between atoms: N_3  and  C_4
REMARK    3  A    between atoms: C_4  and  C_5
REMARK    4  A    between atoms: C_8  and  C_9
REMARK    5  A    between atoms: C_9  and  N_10
REMARK    6  A    between atoms: C_11  and  C_13
REMARK                            x       y       z     vdW  Elec       q    Type
REMARK                         _______ _______ _______ _____ _____    ______ ____
ROOT
ATOM      1  C   UNL     1      49.042   6.050  19.114  0.00  0.00    +0.000 A 
ATOM      2  C   UNL     1      47.735   5.559  19.103  0.00  0.00    +0.000 A 
ATOM      3  C   UNL     1      47.313   4.727  18.069  0.00  0.00    +0.000 A 
ATOM      4  C   UNL     1      48.205   4.424  17.044  0.00  0.00    +0.000 A 
ATOM      5  N   UNL     1      49.482   4.885  17.033  0.00  0.00    +0.000 NA
ATOM      6  C   UNL     1      49.869   5.675  18.061  0.00  0.00    +0.000 A 
ENDROOT
BRANCH   1   7
ATOM      7  C   UNL     1      49.527   6.969  20.194  0.00  0.00    +0.000 C 
BRANCH   7  10
ATOM      8  O   UNL     1      48.897   9.429  19.044  0.00  0.00    +0.000 OA
ATOM      9  C   UNL     1      48.248   9.048  20.010  0.00  0.00    +0.000 C 
ATOM     10  N   UNL     1      48.478   7.851  20.654  0.00  0.00    +0.000 N 
ATOM     11  H   UNL     1      47.781   7.486  21.289  0.00  0.00    +0.000 HD
BRANCH   9  12
ATOM     12  C   UNL     1      47.115   9.863  20.525  0.00  0.00    +0.000 A 
ATOM     13  C   UNL     1      46.571   9.549  21.776  0.00  0.00    +0.000 A 
ATOM     14  C   UNL     1      45.506  10.295  22.284  0.00  0.00    +0.000 A 
ATOM     15  C   UNL     1      44.974  11.346  21.539  0.00  0.00    +0.000 A 
ATOM     16  C   UNL     1      45.497  11.649  20.282  0.00  0.00    +0.000 A 
ATOM     17  C   UNL     1      46.566  10.908  19.771  0.00  0.00    +0.000 A 
ENDBRANCH   9  12
ENDBRANCH   7  10
ENDBRANCH   1   7
BRANCH   4  18
ATOM     18  C   UNL     1      47.763   3.565  15.882  0.00  0.00    +0.000 C 
BRANCH  18  19
ATOM     19  N   UNL     1      46.862   4.256  14.989  0.00  0.00    +0.000 N 
ATOM     20  C   UNL     1      47.262   5.274  14.166  0.00  0.00    +0.000 C 
ATOM     21  O   UNL     1      48.419   5.686  14.153  0.00  0.00    +0.000 OA
ATOM     22  H   UNL     1      45.874   4.088  15.145  0.00  0.00    +0.000 HD
BRANCH  20  23
ATOM     23  C   UNL     1      46.249   5.797  13.241  0.00  0.00    +0.000 A 
ATOM     24  C   UNL     1      46.167   7.165  13.012  0.00  0.00    +0.000 A 
ATOM     25  S   UNL     1      44.961   7.600  11.886  0.00  0.00    +0.000 S 
ATOM     26  C   UNL     1      44.480   5.980  11.694  0.00  0.00    +0.000 A 
ATOM     27  N   UNL     1      43.449   5.648  10.869  0.00  0.00    +0.000 NA
ATOM     28  C   UNL     1      43.171   4.388  10.843  0.00  0.00    +0.000 A 
ATOM     29  N   UNL     1      43.838   3.425  11.555  0.00  0.00    +0.000 N 
ATOM     30  C   UNL     1      44.922   3.706  12.357  0.00  0.00    +0.000 A 
ATOM     31  O   UNL     1      45.554   2.804  12.905  0.00  0.00    +0.000 OA
ATOM     32  C   UNL     1      45.244   5.117  12.455  0.00  0.00    +0.000 A 
ATOM     33  H   UNL     1      43.591   2.452  11.470  0.00  0.00    +0.000 HD
ENDBRANCH  20  23
ENDBRANCH  18  19
ENDBRANCH   4  18
TORSDOF 6
ENDMDL
