MODEL 1
REMARK VINA RESULT:    -7.619      0.000      0.000
REMARK INTER + INTRA:         -10.158
REMARK INTER:                  -9.401
REMARK INTRA:                  -0.757
REMARK UNBOUND:                -0.757
REMARK  Name = 
REMARK  4 active torsions:
REMARK  status: ('A' for Active; 'I' for Inactive)
REMARK    1  A    between atoms: C_5  and  N_6
REMARK    2  A    between atoms: N_6  and  C_7
REMARK    3  A    between atoms: C_7  and  C_8
REMARK    4  A    between atoms: C_12  and  N_13
REMARK                            x       y       z     vdW  Elec       q    Type
REMARK                         _______ _______ _______ _____ _____    ______ ____
ROOT
ATOM      1  C   UNL     1      43.769   4.729  11.499  0.00  0.00    +0.000 C 
ATOM      2  C   UNL     1      42.464   5.279  12.071  0.00  0.00    +0.000 C 
ATOM      3  C   UNL     1      43.188   6.055  11.026  0.00  0.00    +0.000 C 
ENDROOT
BRANCH   1   4
ATOM      4  C   UNL     1      44.995   4.796  12.416  0.00  0.00    +0.000 A 
ATOM      5  C   UNL     1      45.578   3.634  12.941  0.00  0.00    +0.000 A 
ATOM      6  C   UNL     1      46.804   3.680  13.596  0.00  0.00    +0.000 A 
ATOM      7  C   UNL     1      47.482   4.893  13.714  0.00  0.00    +0.000 A 
ATOM      8  C   UNL     1      46.931   6.093  13.245  0.00  0.00    +0.000 A 
ATOM      9  C   UNL     1      45.659   6.022  12.660  0.00  0.00    +0.000 A 
BRANCH   8  10
ATOM     10  N   UNL     1      47.649   7.275  13.325  0.00  0.00    +0.000 N 
ATOM     11  C   UNL     1      46.999   8.584  13.421  0.00  0.00    +0.000 C 
ATOM     12  C   UNL     1      47.201   9.400  12.147  0.00  0.00    +0.000 C 
ATOM     13  C   UNL     1      48.677   9.473  11.765  0.00  0.00    +0.000 C 
ATOM     14  C   UNL     1      49.265   8.071  11.642  0.00  0.00    +0.000 C 
ATOM     15  C   UNL     1      49.062   7.265  12.927  0.00  0.00    +0.000 C 
ENDBRANCH   8  10
ENDBRANCH   1   4
BRANCH   1  16
ATOM     16  N   UNL     1      43.684   3.538  10.636  0.00  0.00    +0.000 N 
ATOM     17  H   UNL     1      43.517   2.644  11.094  0.00  0.00    +0.000 HD
BRANCH  16  22
ATOM     18 CL   UNL     1      47.433   2.512   6.303  0.00  0.00    +0.000 Cl
ATOM     19  C   UNL     1      46.310   2.803   7.560  0.00  0.00    +0.000 A 
ATOM     20  C   UNL     1      45.881   1.801   8.413  0.00  0.00    +0.000 A 
ATOM     21  N   UNL     1      45.010   2.028   9.434  0.00  0.00    +0.000 NA
ATOM     22  C   UNL     1      44.581   3.300   9.581  0.00  0.00    +0.000 A 
ATOM     23  C   UNL     1      45.006   4.285   8.683  0.00  0.00    +0.000 A 
ATOM     24  N   UNL     1      45.883   4.067   7.669  0.00  0.00    +0.000 NA
ENDBRANCH  16  22
ENDBRANCH   1  16
TORSDOF 4
ENDMDL
MODEL 2
REMARK VINA RESULT:    -7.421      2.049      3.465
REMARK INTER + INTRA:          -9.913
REMARK INTER:                  -9.470
REMARK INTRA:                  -0.443
REMARK UNBOUND:                -0.757
REMARK  Name = 
REMARK  4 active torsions:
REMARK  status: ('A' for Active; 'I' for Inactive)
REMARK    1  A    between atoms: C_5  and  N_6
REMARK    2  A    between atoms: N_6  and  C_7
REMARK    3  A    between atoms: C_7  and  C_8
REMARK    4  A    between atoms: C_12  and  N_13
REMARK                            x       y       z     vdW  Elec       q    Type
REMARK                         _______ _______ _______ _____ _____    ______ ____
ROOT
ATOM      1  C   UNL     1      44.469   4.696  12.064  0.00  0.00    +0.000 C 
ATOM      2  C   UNL     1      43.223   4.973  12.901  0.00  0.00    +0.000 C 
ATOM      3  C   UNL     1      43.492   5.804  11.695  0.00  0.00    +0.000 C 
ENDROOT
BRANCH   1   4
ATOM      4  C   UNL     1      45.808   5.125  12.674  0.00  0.00    +0.000 A 
ATOM      5  C   UNL     1      46.604   6.106  12.068  0.00  0.00    +0.000 A 
ATOM      6  C   UNL     1      47.707   6.642  12.726  0.00  0.00    +0.000 A 
ATOM      7  C   UNL     1      48.016   6.218  14.017  0.00  0.00    +0.000 A 
ATOM      8  C   UNL     1      47.281   5.212  14.659  0.00  0.00    +0.000 A 
ATOM      9  C   UNL     1      46.224   4.640  13.936  0.00  0.00    +0.000 A 
BRANCH   8  10
ATOM     10  N   UNL     1      47.574   4.848  15.963  0.00  0.00    +0.000 N 
ATOM     11  C   UNL     1      48.488   5.620  16.807  0.00  0.00    +0.000 C 
ATOM     12  C   UNL     1      49.780   4.852  17.075  0.00  0.00    +0.000 C 
ATOM     13  C   UNL     1      49.490   3.450  17.605  0.00  0.00    +0.000 C 
ATOM     14  C   UNL     1      48.569   2.700  16.647  0.00  0.00    +0.000 C 
ATOM     15  C   UNL     1      47.276   3.476  16.391  0.00  0.00    +0.000 C 
ENDBRANCH   8  10
ENDBRANCH   1   4
BRANCH   1  16
ATOM     16  N   UNL     1      44.498   3.449  11.280  0.00  0.00    +0.000 N 
ATOM     17  H   UNL     1      44.791   2.603  11.765  0.00  0.00    +0.000 HD
BRANCH  16  22
ATOM     18 CL   UNL     1      46.719   3.126   5.909  0.00  0.00    +0.000 Cl
ATOM     19  C   UNL     1      46.041   3.214   7.477  0.00  0.00    +0.000 A 
ATOM     20  C   UNL     1      45.806   2.087   8.244  0.00  0.00    +0.000 A 
ATOM     21  N   UNL     1      45.293   2.147   9.503  0.00  0.00    +0.000 NA
ATOM     22  C   UNL     1      45.024   3.382   9.979  0.00  0.00    +0.000 A 
ATOM     23  C   UNL     1      45.241   4.501   9.168  0.00  0.00    +0.000 A 
ATOM     24  N   UNL     1      45.762   4.448   7.916  0.00  0.00    +0.000 NA
ENDBRANCH  16  22
ENDBRANCH   1  16
TORSDOF 4
ENDMDL
MODEL 3
REMARK VINA RESULT:    -7.317      3.006      6.668
REMARK INTER + INTRA:          -9.786
REMARK INTER:                  -9.161
REMARK INTRA:                  -0.624
REMARK UNBOUND:                -0.757
REMARK  Name = 
REMARK  4 active torsions:
REMARK  status: ('A' for Active; 'I' for Inactive)
REMARK    1  A    between atoms: C_5  and  N_6
REMARK    2  A    between atoms: N_6  and  C_7
REMARK    3  A    between atoms: C_7  and  C_8
REMARK    4  A    between atoms: C_12  and  N_13
REMARK                            x       y       z     vdW  Elec       q    Type
REMARK                         _______ _______ _______ _____ _____    ______ ____
ROOT
ATOM      1  C   UNL     1      46.326   6.767  12.589  0.00  0.00    +0.000 C 
ATOM      2  C   UNL     1      46.422   8.018  11.719  0.00  0.00    +0.000 C 
ATOM      3  C   UNL     1      45.855   8.125  13.092  0.00  0.00    +0.000 C 
ENDROOT
BRANCH   1   4
ATOM      4  C   UNL     1      45.241   5.754  12.205  0.00  0.00    +0.000 A 
ATOM      5  C   UNL     1      44.022   5.696  12.894  0.00  0.00    +0.000 A 
ATOM      6  C   UNL     1      42.965   4.928  12.416  0.00  0.00    +0.000 A 
ATOM      7  C   UNL     1      43.106   4.221  11.223  0.00  0.00    +0.000 A 
ATOM      8  C   UNL     1      44.314   4.209  10.512  0.00  0.00    +0.000 A 
ATOM      9  C   UNL     1      45.381   4.932  11.063  0.00  0.00    +0.000 A 
BRANCH   8  10
ATOM     10  N   UNL     1      44.410   3.545   9.300  0.00  0.00    +0.000 N 
ATOM     11  C   UNL     1      44.458   2.085   9.207  0.00  0.00    +0.000 C 
ATOM     12  C   UNL     1      45.833   1.602   8.749  0.00  0.00    +0.000 C 
ATOM     13  C   UNL     1      46.272   2.315   7.472  0.00  0.00    +0.000 C 
ATOM     14  C   UNL     1      46.236   3.827   7.669  0.00  0.00    +0.000 C 
ATOM     15  C   UNL     1      44.853   4.299   8.121  0.00  0.00    +0.000 C 
ENDBRANCH   8  10
ENDBRANCH   1   4
BRANCH   1  16
ATOM     16  N   UNL     1      47.584   6.191  13.093  0.00  0.00    +0.000 N 
ATOM     17  H   UNL     1      48.158   5.675  12.428  0.00  0.00    +0.000 HD
BRANCH  16  22
ATOM     18 CL   UNL     1      48.008   3.411  18.189  0.00  0.00    +0.000 Cl
ATOM     19  C   UNL     1      47.864   4.245  16.703  0.00  0.00    +0.000 A 
ATOM     20  C   UNL     1      48.520   5.439  16.461  0.00  0.00    +0.000 A 
ATOM     21  N   UNL     1      48.436   6.097  15.272  0.00  0.00    +0.000 NA
ATOM     22  C   UNL     1      47.671   5.516  14.322  0.00  0.00    +0.000 A 
ATOM     23  C   UNL     1      46.993   4.326  14.608  0.00  0.00    +0.000 A 
ATOM     24  N   UNL     1      47.082   3.660  15.787  0.00  0.00    +0.000 NA
ENDBRANCH  16  22
ENDBRANCH   1  16
TORSDOF 4
ENDMDL
MODEL 4
REMARK VINA RESULT:    -7.255      1.901      2.759
REMARK INTER + INTRA:          -9.709
REMARK INTER:                  -9.403
REMARK INTRA:                  -0.306
REMARK UNBOUND:                -0.757
REMARK  Name = 
REMARK  4 active torsions:
REMARK  status: ('A' for Active; 'I' for Inactive)
REMARK    1  A    between atoms: C_5  and  N_6
REMARK    2  A    between atoms: N_6  and  C_7
REMARK    3  A    between atoms: C_7  and  C_8
REMARK    4  A    between atoms: C_12  and  N_13
REMARK                            x       y       z     vdW  Elec       q    Type
REMARK                         _______ _______ _______ _____ _____    ______ ____
ROOT
ATOM      1  C   UNL     1      43.769   5.208  11.265  0.00  0.00    +0.000 C 
ATOM      2  C   UNL     1      43.427   4.068  12.223  0.00  0.00    +0.000 C 
ATOM      3  C   UNL     1      42.497   5.225  12.102  0.00  0.00    +0.000 C 
ENDROOT
BRANCH   1   4
ATOM      4  C   UNL     1      44.899   6.146  11.700  0.00  0.00    +0.000 A 
ATOM      5  C   UNL     1      46.217   5.689  11.830  0.00  0.00    +0.000 A 
ATOM      6  C   UNL     1      47.270   6.578  12.019  0.00  0.00    +0.000 A 
ATOM      7  C   UNL     1      47.020   7.949  12.057  0.00  0.00    +0.000 A 
ATOM      8  C   UNL     1      45.718   8.464  11.973  0.00  0.00    +0.000 A 
ATOM      9  C   UNL     1      44.675   7.534  11.861  0.00  0.00    +0.000 A 
BRANCH   8  10
ATOM     10  N   UNL     1      45.502   9.832  11.957  0.00  0.00    +0.000 N 
ATOM     11  C   UNL     1      44.251  10.423  11.478  0.00  0.00    +0.000 C 
ATOM     12  C   UNL     1      44.459  11.178  10.167  0.00  0.00    +0.000 C 
ATOM     13  C   UNL     1      45.609  12.176  10.280  0.00  0.00    +0.000 C 
ATOM     14  C   UNL     1      46.881  11.472  10.740  0.00  0.00    +0.000 C 
ATOM     15  C   UNL     1      46.662  10.725  12.057  0.00  0.00    +0.000 C 
ENDBRANCH   8  10
ENDBRANCH   1   4
BRANCH   1  16
ATOM     16  N   UNL     1      43.696   4.926   9.821  0.00  0.00    +0.000 N 
ATOM     17  H   UNL     1      42.773   4.749   9.428  0.00  0.00    +0.000 HD
BRANCH  16  22
ATOM     18 CL   UNL     1      47.404   1.381   7.070  0.00  0.00    +0.000 Cl
ATOM     19  C   UNL     1      46.335   2.431   7.896  0.00  0.00    +0.000 A 
ATOM     20  C   UNL     1      46.314   3.795   7.665  0.00  0.00    +0.000 A 
ATOM     21  N   UNL     1      45.449   4.635   8.296  0.00  0.00    +0.000 NA
ATOM     22  C   UNL     1      44.593   4.063   9.170  0.00  0.00    +0.000 A 
ATOM     23  C   UNL     1      44.660   2.685   9.408  0.00  0.00    +0.000 A 
ATOM     24  N   UNL     1      45.514   1.841   8.774  0.00  0.00    +0.000 NA
ENDBRANCH  16  22
ENDBRANCH   1  16
TORSDOF 4
ENDMDL
MODEL 5
REMARK VINA RESULT:    -7.151      3.094      6.544
REMARK INTER + INTRA:          -9.580
REMARK INTER:                  -8.897
REMARK INTRA:                  -0.683
REMARK UNBOUND:                -0.757
REMARK  Name = 
REMARK  4 active torsions:
REMARK  status: ('A' for Active; 'I' for Inactive)
REMARK    1  A    between atoms: C_5  and  N_6
REMARK    2  A    between atoms: N_6  and  C_7
REMARK    3  A    between atoms: C_7  and  C_8
REMARK    4  A    between atoms: C_12  and  N_13
REMARK                            x       y       z     vdW  Elec       q    Type
REMARK                         _______ _______ _______ _____ _____    ______ ____
ROOT
ATOM      1  C   UNL     1      45.968   6.663  12.495  0.00  0.00    +0.000 C 
ATOM      2  C   UNL     1      47.292   6.547  13.247  0.00  0.00    +0.000 C 
ATOM      3  C   UNL     1      47.301   6.921  11.805  0.00  0.00    +0.000 C 
ENDROOT
BRANCH   1   4
ATOM      4  C   UNL     1      45.257   5.347  12.162  0.00  0.00    +0.000 A 
ATOM      5  C   UNL     1      44.304   4.793  13.029  0.00  0.00    +0.000 A 
ATOM      6  C   UNL     1      43.513   3.720  12.633  0.00  0.00    +0.000 A 
ATOM      7  C   UNL     1      43.647   3.197  11.348  0.00  0.00    +0.000 A 
ATOM      8  C   UNL     1      44.609   3.683  10.451  0.00  0.00    +0.000 A 
ATOM      9  C   UNL     1      45.441   4.713  10.911  0.00  0.00    +0.000 A 
BRANCH   8  10
ATOM     10  N   UNL     1      44.685   3.184   9.161  0.00  0.00    +0.000 N 
ATOM     11  C   UNL     1      44.801   1.752   8.879  0.00  0.00    +0.000 C 
ATOM     12  C   UNL     1      46.177   1.407   8.311  0.00  0.00    +0.000 C 
ATOM     13  C   UNL     1      46.523   2.300   7.121  0.00  0.00    +0.000 C 
ATOM     14  C   UNL     1      46.420   3.771   7.512  0.00  0.00    +0.000 C 
ATOM     15  C   UNL     1      45.036   4.104   8.074  0.00  0.00    +0.000 C 
ENDBRANCH   8  10
ENDBRANCH   1   4
BRANCH   1  16
ATOM     16  N   UNL     1      45.087   7.793  12.841  0.00  0.00    +0.000 N 
ATOM     17  H   UNL     1      44.161   7.567  13.200  0.00  0.00    +0.000 HD
BRANCH  16  22
ATOM     18 CL   UNL     1      44.516  12.517   9.489  0.00  0.00    +0.000 Cl
ATOM     19  C   UNL     1      44.705  11.119  10.457  0.00  0.00    +0.000 A 
ATOM     20  C   UNL     1      45.698  11.014  11.415  0.00  0.00    +0.000 A 
ATOM     21  N   UNL     1      45.840   9.919  12.210  0.00  0.00    +0.000 NA
ATOM     22  C   UNL     1      44.946   8.923  12.020  0.00  0.00    +0.000 A 
ATOM     23  C   UNL     1      43.974   9.045  11.020  0.00  0.00    +0.000 A 
ATOM     24  N   UNL     1      43.822  10.139  10.231  0.00  0.00    +0.000 NA
ENDBRANCH  16  22
ENDBRANCH   1  16
TORSDOF 4
ENDMDL
MODEL 6
REMARK VINA RESULT:    -7.123      1.358      2.494
REMARK INTER + INTRA:          -9.546
REMARK INTER:                  -9.257
REMARK INTRA:                  -0.288
REMARK UNBOUND:                -0.757
REMARK  Name = 
REMARK  4 active torsions:
REMARK  status: ('A' for Active; 'I' for Inactive)
REMARK    1  A    between atoms: C_5  and  N_6
REMARK    2  A    between atoms: N_6  and  C_7
REMARK    3  A    between atoms: C_7  and  C_8
REMARK    4  A    between atoms: C_12  and  N_13
REMARK                            x       y       z     vdW  Elec       q    Type
REMARK                         _______ _______ _______ _____ _____    ______ ____
ROOT
ATOM      1  C   UNL     1      43.942   5.116  11.149  0.00  0.00    +0.000 C 
ATOM      2  C   UNL     1      43.953   4.024  12.217  0.00  0.00    +0.000 C 
ATOM      3  C   UNL     1      42.799   4.963  12.144  0.00  0.00    +0.000 C 
ENDROOT
BRANCH   1   4
ATOM      4  C   UNL     1      44.900   6.291  11.368  0.00  0.00    +0.000 A 
ATOM      5  C   UNL     1      44.449   7.618  11.325  0.00  0.00    +0.000 A 
ATOM      6  C   UNL     1      45.268   8.667  11.727  0.00  0.00    +0.000 A 
ATOM      7  C   UNL     1      46.550   8.401  12.205  0.00  0.00    +0.000 A 
ATOM      8  C   UNL     1      47.071   7.100  12.234  0.00  0.00    +0.000 A 
ATOM      9  C   UNL     1      46.246   6.076  11.748  0.00  0.00    +0.000 A 
BRANCH   8  10
ATOM     10  N   UNL     1      48.327   6.856  12.765  0.00  0.00    +0.000 N 
ATOM     11  C   UNL     1      48.537   6.577  14.187  0.00  0.00    +0.000 C 
ATOM     12  C   UNL     1      49.272   7.726  14.875  0.00  0.00    +0.000 C 
ATOM     13  C   UNL     1      50.550   8.093  14.124  0.00  0.00    +0.000 C 
ATOM     14  C   UNL     1      50.236   8.411  12.665  0.00  0.00    +0.000 C 
ATOM     15  C   UNL     1      49.506   7.251  11.986  0.00  0.00    +0.000 C 
ENDBRANCH   8  10
ENDBRANCH   1   4
BRANCH   1  16
ATOM     16  N   UNL     1      43.761   4.694   9.749  0.00  0.00    +0.000 N 
ATOM     17  H   UNL     1      42.841   4.345   9.485  0.00  0.00    +0.000 HD
BRANCH  16  22
ATOM     18 CL   UNL     1      47.679   1.516   6.846  0.00  0.00    +0.000 Cl
ATOM     19  C   UNL     1      46.548   2.458   7.718  0.00  0.00    +0.000 A 
ATOM     20  C   UNL     1      46.437   3.826   7.543  0.00  0.00    +0.000 A 
ATOM     21  N   UNL     1      45.522   4.581   8.210  0.00  0.00    +0.000 NA
ATOM     22  C   UNL     1      44.709   3.919   9.062  0.00  0.00    +0.000 A 
ATOM     23  C   UNL     1      44.867   2.540   9.242  0.00  0.00    +0.000 A 
ATOM     24  N   UNL     1      45.771   1.781   8.572  0.00  0.00    +0.000 NA
ENDBRANCH  16  22
ENDBRANCH   1  16
TORSDOF 4
ENDMDL
MODEL 7
REMARK VINA RESULT:    -6.543      2.267      6.319
REMARK INTER + INTRA:          -8.831
REMARK INTER:                  -7.948
REMARK INTRA:                  -0.882
REMARK UNBOUND:                -0.757
REMARK  Name = 
REMARK  4 active torsions:
REMARK  status: ('A' for Active; 'I' for Inactive)
REMARK    1  A    between atoms: C_5  and  N_6
REMARK    2  A    between atoms: N_6  and  C_7
REMARK    3  A    between atoms: C_7  and  C_8
REMARK    4  A    between atoms: C_12  and  N_13
REMARK                            x       y       z     vdW  Elec       q    Type
REMARK                         _______ _______ _______ _____ _____    ______ ____
ROOT
ATOM      1  C   UNL     1      46.312   4.987  13.656  0.00  0.00    +0.000 C 
ATOM      2  C   UNL     1      46.488   4.016  14.821  0.00  0.00    +0.000 C 
ATOM      3  C   UNL     1      47.382   3.903  13.635  0.00  0.00    +0.000 C 
ENDROOT
BRANCH   1   4
ATOM      4  C   UNL     1      45.084   4.766  12.767  0.00  0.00    +0.000 A 
ATOM      5  C   UNL     1      43.866   5.407  13.034  0.00  0.00    +0.000 A 
ATOM      6  C   UNL     1      42.821   5.372  12.116  0.00  0.00    +0.000 A 
ATOM      7  C   UNL     1      42.989   4.712  10.900  0.00  0.00    +0.000 A 
ATOM      8  C   UNL     1      44.169   4.020  10.593  0.00  0.00    +0.000 A 
ATOM      9  C   UNL     1      45.171   4.011  11.573  0.00  0.00    +0.000 A 
BRANCH   8  10
ATOM     10  N   UNL     1      44.332   3.420   9.355  0.00  0.00    +0.000 N 
ATOM     11  C   UNL     1      44.475   1.972   9.198  0.00  0.00    +0.000 C 
ATOM     12  C   UNL     1      45.887   1.598   8.750  0.00  0.00    +0.000 C 
ATOM     13  C   UNL     1      46.305   2.396   7.517  0.00  0.00    +0.000 C 
ATOM     14  C   UNL     1      46.169   3.892   7.781  0.00  0.00    +0.000 C 
ATOM     15  C   UNL     1      44.749   4.255   8.222  0.00  0.00    +0.000 C 
ENDBRANCH   8  10
ENDBRANCH   1   4
BRANCH   1  16
ATOM     16  N   UNL     1      46.692   6.392  13.879  0.00  0.00    +0.000 N 
ATOM     17  H   UNL     1      45.949   7.087  13.833  0.00  0.00    +0.000 HD
BRANCH  16  22
ATOM     18 CL   UNL     1      51.414   8.752  11.427  0.00  0.00    +0.000 Cl
ATOM     19  C   UNL     1      50.015   8.085  12.149  0.00  0.00    +0.000 A 
ATOM     20  C   UNL     1      48.865   7.821  11.425  0.00  0.00    +0.000 A 
ATOM     21  N   UNL     1      47.756   7.264  11.984  0.00  0.00    +0.000 NA
ATOM     22  C   UNL     1      47.834   6.971  13.300  0.00  0.00    +0.000 A 
ATOM     23  C   UNL     1      48.998   7.279  14.012  0.00  0.00    +0.000 A 
ATOM     24  N   UNL     1      50.111   7.825  13.459  0.00  0.00    +0.000 NA
ENDBRANCH  16  22
ENDBRANCH   1  16
TORSDOF 4
ENDMDL
MODEL 8
REMARK VINA RESULT:    -6.506      3.025      6.722
REMARK INTER + INTRA:          -8.784
REMARK INTER:                  -8.049
REMARK INTRA:                  -0.736
REMARK UNBOUND:                -0.757
REMARK  Name = 
REMARK  4 active torsions:
REMARK  status: ('A' for Active; 'I' for Inactive)
REMARK    1  A    between atoms: C_5  and  N_6
REMARK    2  A    between atoms: N_6  and  C_7
REMARK    3  A    between atoms: C_7  and  C_8
REMARK    4  A    between atoms: C_12  and  N_13
REMARK                            x       y       z     vdW  Elec       q    Type
REMARK                         _______ _______ _______ _____ _____    ______ ____
ROOT
ATOM      1  C   UNL     1      46.121   7.192  12.170  0.00  0.00    +0.000 C 
ATOM      2  C   UNL     1      45.537   8.443  11.518  0.00  0.00    +0.000 C 
ATOM      3  C   UNL     1      45.457   8.286  12.997  0.00  0.00    +0.000 C 
ENDROOT
BRANCH   1   4
ATOM      4  C   UNL     1      45.331   5.893  11.976  0.00  0.00    +0.000 A 
ATOM      5  C   UNL     1      44.353   5.490  12.895  0.00  0.00    +0.000 A 
ATOM      6  C   UNL     1      43.497   4.430  12.613  0.00  0.00    +0.000 A 
ATOM      7  C   UNL     1      43.593   3.769  11.389  0.00  0.00    +0.000 A 
ATOM      8  C   UNL     1      44.576   4.101  10.448  0.00  0.00    +0.000 A 
ATOM      9  C   UNL     1      45.470   5.122  10.797  0.00  0.00    +0.000 A 
BRANCH   8  10
ATOM     10  N   UNL     1      44.615   3.467   9.216  0.00  0.00    +0.000 N 
ATOM     11  C   UNL     1      44.618   2.009   9.084  0.00  0.00    +0.000 C 
ATOM     12  C   UNL     1      45.963   1.501   8.569  0.00  0.00    +0.000 C 
ATOM     13  C   UNL     1      46.380   2.235   7.297  0.00  0.00    +0.000 C 
ATOM     14  C   UNL     1      46.394   3.742   7.533  0.00  0.00    +0.000 C 
ATOM     15  C   UNL     1      45.040   4.240   8.043  0.00  0.00    +0.000 C 
ENDBRANCH   8  10
ENDBRANCH   1   4
BRANCH   1  16
ATOM     16  N   UNL     1      47.587   7.050  12.178  0.00  0.00    +0.000 N 
ATOM     17  H   UNL     1      47.991   6.367  11.540  0.00  0.00    +0.000 HD
BRANCH  16  22
ATOM     18 CL   UNL     1      50.644   6.842  17.126  0.00  0.00    +0.000 Cl
ATOM     19  C   UNL     1      49.759   6.880  15.663  0.00  0.00    +0.000 A 
ATOM     20  C   UNL     1      48.642   6.091  15.456  0.00  0.00    +0.000 A 
ATOM     21  N   UNL     1      47.913   6.133  14.307  0.00  0.00    +0.000 NA
ATOM     22  C   UNL     1      48.338   7.001  13.364  0.00  0.00    +0.000 A 
ATOM     23  C   UNL     1      49.491   7.762  13.588  0.00  0.00    +0.000 A 
ATOM     24  N   UNL     1      50.215   7.731  14.736  0.00  0.00    +0.000 NA
ENDBRANCH  16  22
ENDBRANCH   1  16
TORSDOF 4
ENDMDL
MODEL 9
REMARK VINA RESULT:    -6.061      3.379      5.869
REMARK INTER + INTRA:          -8.236
REMARK INTER:                  -7.537
REMARK INTRA:                  -0.700
REMARK UNBOUND:                -0.757
REMARK  Name = 
REMARK  4 active torsions:
REMARK  status: ('A' for Active; 'I' for Inactive)
REMARK    1  A    between atoms: C_5  and  N_6
REMARK    2  A    between atoms: N_6  and  C_7
REMARK    3  A    between atoms: C_7  and  C_8
REMARK    4  A    between atoms: C_12  and  N_13
REMARK                            x       y       z     vdW  Elec       q    Type
REMARK                         _______ _______ _______ _____ _____    ______ ____
ROOT
ATOM      1  C   UNL     1      47.590   7.529  13.281  0.00  0.00    +0.000 C 
ATOM      2  C   UNL     1      48.253   8.385  12.204  0.00  0.00    +0.000 C 
ATOM      3  C   UNL     1      48.410   6.905  12.159  0.00  0.00    +0.000 C 
ENDROOT
BRANCH   1   4
ATOM      4  C   UNL     1      48.232   7.567  14.671  0.00  0.00    +0.000 A 
ATOM      5  C   UNL     1      48.453   8.779  15.339  0.00  0.00    +0.000 A 
ATOM      6  C   UNL     1      48.839   8.802  16.676  0.00  0.00    +0.000 A 
ATOM      7  C   UNL     1      48.985   7.605  17.375  0.00  0.00    +0.000 A 
ATOM      8  C   UNL     1      48.816   6.361  16.750  0.00  0.00    +0.000 A 
ATOM      9  C   UNL     1      48.504   6.375  15.384  0.00  0.00    +0.000 A 
BRANCH   8  10
ATOM     10  N   UNL     1      48.913   5.188  17.480  0.00  0.00    +0.000 N 
ATOM     11  C   UNL     1      50.168   4.743  18.089  0.00  0.00    +0.000 C 
ATOM     12  C   UNL     1      50.711   3.496  17.394  0.00  0.00    +0.000 C 
ATOM     13  C   UNL     1      49.648   2.404  17.308  0.00  0.00    +0.000 C 
ATOM     14  C   UNL     1      48.393   2.936  16.623  0.00  0.00    +0.000 C 
ATOM     15  C   UNL     1      47.855   4.181  17.332  0.00  0.00    +0.000 C 
ENDBRANCH   8  10
ENDBRANCH   1   4
BRANCH   1  16
ATOM     16  N   UNL     1      46.120   7.430  13.261  0.00  0.00    +0.000 N 
ATOM     17  H   UNL     1      45.617   7.829  14.051  0.00  0.00    +0.000 HD
BRANCH  16  22
ATOM     18 CL   UNL     1      43.264   2.597  11.723  0.00  0.00    +0.000 Cl
ATOM     19  C   UNL     1      44.123   4.012  12.154  0.00  0.00    +0.000 A 
ATOM     20  C   UNL     1      43.985   5.199  11.457  0.00  0.00    +0.000 A 
ATOM     21  N   UNL     1      44.642   6.339  11.809  0.00  0.00    +0.000 NA
ATOM     22  C   UNL     1      45.444   6.255  12.893  0.00  0.00    +0.000 A 
ATOM     23  C   UNL     1      45.588   5.032  13.557  0.00  0.00    +0.000 A 
ATOM     24  N   UNL     1      44.929   3.895  13.217  0.00  0.00    +0.000 NA
ENDBRANCH  16  22
ENDBRANCH   1  16
TORSDOF 4
ENDMDL
