MODEL 1
REMARK VINA RESULT:    -8.336      0.000      0.000
REMARK INTER + INTRA:         -12.726
REMARK INTER:                 -11.991
REMARK INTRA:                  -0.734
REMARK UNBOUND:                -0.734
REMARK  Name = 
REMARK  9 active torsions:
REMARK  status: ('A' for Active; 'I' for Inactive)
REMARK    1  A    between atoms: C_1  and  C_2
REMARK    2  A    between atoms: C_2  and  N_3
REMARK    3  A    between atoms: C_2  and  C_19
REMARK    4  A    between atoms: N_3  and  C_4
REMARK    5  A    between atoms: C_7  and  C_8
REMARK    6  A    between atoms: C_8  and  C_9
REMARK    7  A    between atoms: C_9  and  O_10
REMARK    8  A    between atoms: C_9  and  C_11
REMARK    9  A    between atoms: C_19  and  C_21
REMARK                            x       y       z     vdW  Elec       q    Type
REMARK                         _______ _______ _______ _____ _____    ______ ____
ROOT
ATOM      1  N   UNL     1      47.051   5.281  15.204  0.00  0.00    +0.000 N 
ATOM      2  H   UNL     1      47.582   6.136  14.994  0.00  0.00    +0.000 HD
ENDROOT
BRANCH   1   3
ATOM      3  C   UNL     1      46.368   4.805  14.101  0.00  0.00    +0.000 A 
ATOM      4  C   UNL     1      45.506   5.626  13.388  0.00  0.00    +0.000 A 
ATOM      5  N   UNL     1      44.791   5.249  12.309  0.00  0.00    +0.000 NA
ATOM      6  C   UNL     1      44.963   3.980  11.910  0.00  0.00    +0.000 A 
ATOM      7  N   UNL     1      45.805   3.098  12.481  0.00  0.00    +0.000 NA
ATOM      8  C   UNL     1      46.490   3.547  13.553  0.00  0.00    +0.000 A 
BRANCH   6   9
ATOM      9  C   UNL     1      44.096   3.457  10.801  0.00  0.00    +0.000 C 
BRANCH   9  10
ATOM     10  C   UNL     1      44.416   4.120   9.457  0.00  0.00    +0.000 C 
BRANCH  10  11
ATOM     11  C   UNL     1      45.365   3.254   8.653  0.00  0.00    +0.000 A 
ATOM     12  C   UNL     1      45.436   1.885   8.884  0.00  0.00    +0.000 A 
ATOM     13  N   UNL     1      46.282   1.067   8.210  0.00  0.00    +0.000 NA
ATOM     14  C   UNL     1      47.045   1.670   7.272  0.00  0.00    +0.000 A 
ATOM     15  C   UNL     1      46.961   3.024   7.009  0.00  0.00    +0.000 A 
ATOM     16  N   UNL     1      46.122   3.841   7.684  0.00  0.00    +0.000 NA
ENDBRANCH  10  11
BRANCH  10  17
ATOM     17  O   UNL     1      45.022   5.408   9.602  0.00  0.00    +0.000 OA
ATOM     18  H   UNL     1      45.579   5.378  10.401  0.00  0.00    +0.000 HD
ENDBRANCH  10  17
ENDBRANCH   9  10
ENDBRANCH   6   9
ENDBRANCH   1   3
BRANCH   1  20
ATOM     19  C   UNL     1      47.018   4.310  17.434  0.00  0.00    +0.000 C 
ATOM     20  C   UNL     1      47.799   4.396  16.124  0.00  0.00    +0.000 C 
BRANCH  20  21
ATOM     21  C   UNL     1      49.187   5.013  16.374  0.00  0.00    +0.000 C 
ATOM     22  O   UNL     1      49.583   5.928  15.641  0.00  0.00    +0.000 OA
BRANCH  21  23
ATOM     23  C   UNL     1      50.022   4.563  17.491  0.00  0.00    +0.000 A 
ATOM     24  C   UNL     1      50.381   5.311  18.600  0.00  0.00    +0.000 A 
ATOM     25  S   UNL     1      51.696   4.609  19.454  0.00  0.00    +0.000 S 
ATOM     26  C   UNL     1      51.695   3.237  18.444  0.00  0.00    +0.000 A 
ATOM     27  N   UNL     1      52.627   2.254  18.549  0.00  0.00    +0.000 NA
ATOM     28  C   UNL     1      52.436   1.258  17.744  0.00  0.00    +0.000 A 
ATOM     29  N   UNL     1      51.375   1.133  16.881  0.00  0.00    +0.000 N 
ATOM     30  C   UNL     1      50.371   2.069  16.794  0.00  0.00    +0.000 A 
ATOM     31  O   UNL     1      49.322   1.834  16.208  0.00  0.00    +0.000 OA
ATOM     32  C   UNL     1      50.638   3.271  17.561  0.00  0.00    +0.000 A 
ATOM     33  H   UNL     1      51.215   0.274  16.376  0.00  0.00    +0.000 HD
ENDBRANCH  21  23
ENDBRANCH  20  21
ENDBRANCH   1  20
TORSDOF 8
ENDMDL
MODEL 2
REMARK VINA RESULT:    -8.226      2.130      2.765
REMARK INTER + INTRA:         -12.567
REMARK INTER:                 -11.127
REMARK INTRA:                  -1.441
REMARK UNBOUND:                -0.734
REMARK  Name = 
REMARK  9 active torsions:
REMARK  status: ('A' for Active; 'I' for Inactive)
REMARK    1  A    between atoms: C_1  and  C_2
REMARK    2  A    between atoms: C_2  and  N_3
REMARK    3  A    between atoms: C_2  and  C_19
REMARK    4  A    between atoms: N_3  and  C_4
REMARK    5  A    between atoms: C_7  and  C_8
REMARK    6  A    between atoms: C_8  and  C_9
REMARK    7  A    between atoms: C_9  and  O_10
REMARK    8  A    between atoms: C_9  and  C_11
REMARK    9  A    between atoms: C_19  and  C_21
REMARK                            x       y       z     vdW  Elec       q    Type
REMARK                         _______ _______ _______ _____ _____    ______ ____
ROOT
ATOM      1  N   UNL     1      47.197   5.449  14.751  0.00  0.00    +0.000 N 
ATOM      2  H   UNL     1      46.756   5.401  15.678  0.00  0.00    +0.000 HD
ENDROOT
BRANCH   1   3
ATOM      3  C   UNL     1      46.358   5.002  13.748  0.00  0.00    +0.000 A 
ATOM      4  C   UNL     1      46.477   3.717  13.239  0.00  0.00    +0.000 A 
ATOM      5  N   UNL     1      45.714   3.197  12.256  0.00  0.00    +0.000 NA
ATOM      6  C   UNL     1      44.764   4.006  11.767  0.00  0.00    +0.000 A 
ATOM      7  N   UNL     1      44.510   5.254  12.206  0.00  0.00    +0.000 NA
ATOM      8  C   UNL     1      45.311   5.705  13.193  0.00  0.00    +0.000 A 
BRANCH   6   9
ATOM      9  C   UNL     1      43.970   3.540  10.581  0.00  0.00    +0.000 C 
BRANCH   9  10
ATOM     10  C   UNL     1      44.443   4.193   9.277  0.00  0.00    +0.000 C 
BRANCH  10  11
ATOM     11  C   UNL     1      45.395   3.272   8.541  0.00  0.00    +0.000 A 
ATOM     12  C   UNL     1      45.420   1.911   8.825  0.00  0.00    +0.000 A 
ATOM     13  N   UNL     1      46.266   1.046   8.212  0.00  0.00    +0.000 NA
ATOM     14  C   UNL     1      47.076   1.593   7.279  0.00  0.00    +0.000 A 
ATOM     15  C   UNL     1      47.039   2.937   6.963  0.00  0.00    +0.000 A 
ATOM     16  N   UNL     1      46.200   3.801   7.577  0.00  0.00    +0.000 NA
ENDBRANCH  10  11
BRANCH  10  17
ATOM     17  O   UNL     1      45.121   5.436   9.491  0.00  0.00    +0.000 OA
ATOM     18  H   UNL     1      45.194   5.564  10.454  0.00  0.00    +0.000 HD
ENDBRANCH  10  17
ENDBRANCH   9  10
ENDBRANCH   6   9
ENDBRANCH   1   3
BRANCH   1  20
ATOM     19  C   UNL     1      48.734   6.603  13.260  0.00  0.00    +0.000 C 
ATOM     20  C   UNL     1      48.029   6.665  14.614  0.00  0.00    +0.000 C 
BRANCH  20  21
ATOM     21  C   UNL     1      49.065   6.678  15.751  0.00  0.00    +0.000 C 
ATOM     22  O   UNL     1      50.264   6.529  15.480  0.00  0.00    +0.000 OA
BRANCH  21  23
ATOM     23  C   UNL     1      48.659   6.909  17.140  0.00  0.00    +0.000 A 
ATOM     24  C   UNL     1      48.357   8.133  17.714  0.00  0.00    +0.000 A 
ATOM     25  S   UNL     1      48.353   8.057  19.430  0.00  0.00    +0.000 S 
ATOM     26  C   UNL     1      48.603   6.372  19.415  0.00  0.00    +0.000 A 
ATOM     27  N   UNL     1      48.789   5.652  20.552  0.00  0.00    +0.000 NA
ATOM     28  C   UNL     1      48.900   4.378  20.357  0.00  0.00    +0.000 A 
ATOM     29  N   UNL     1      48.795   3.754  19.138  0.00  0.00    +0.000 N 
ATOM     30  C   UNL     1      48.536   4.435  17.972  0.00  0.00    +0.000 A 
ATOM     31  O   UNL     1      48.207   3.853  16.946  0.00  0.00    +0.000 OA
ATOM     32  C   UNL     1      48.567   5.876  18.130  0.00  0.00    +0.000 A 
ATOM     33  H   UNL     1      48.761   2.747  19.071  0.00  0.00    +0.000 HD
ENDBRANCH  21  23
ENDBRANCH  20  21
ENDBRANCH   1  20
TORSDOF 8
ENDMDL
MODEL 3
REMARK VINA RESULT:    -8.072      2.702      8.795
REMARK INTER + INTRA:         -12.346
REMARK INTER:                 -10.980
REMARK INTRA:                  -1.366
REMARK UNBOUND:                -0.734
REMARK  Name = 
REMARK  9 active torsions:
REMARK  status: ('A' for Active; 'I' for Inactive)
REMARK    1  A    between atoms: C_1  and  C_2
REMARK    2  A    between atoms: C_2  and  N_3
REMARK    3  A    between atoms: C_2  and  C_19
REMARK    4  A    between atoms: N_3  and  C_4
REMARK    5  A    between atoms: C_7  and  C_8
REMARK    6  A    between atoms: C_8  and  C_9
REMARK    7  A    between atoms: C_9  and  O_10
REMARK    8  A    between atoms: C_9  and  C_11
REMARK    9  A    between atoms: C_19  and  C_21
REMARK                            x       y       z     vdW  Elec       q    Type
REMARK                         _______ _______ _______ _____ _____    ______ ____
ROOT
ATOM      1  N   UNL     1      46.873   6.560  13.560  0.00  0.00    +0.000 N 
ATOM      2  H   UNL     1      45.977   7.027  13.749  0.00  0.00    +0.000 HD
ENDROOT
BRANCH   1   3
ATOM      3  C   UNL     1      47.257   5.728  14.595  0.00  0.00    +0.000 A 
ATOM      4  C   UNL     1      48.317   6.066  15.424  0.00  0.00    +0.000 A 
ATOM      5  N   UNL     1      48.770   5.316  16.449  0.00  0.00    +0.000 NA
ATOM      6  C   UNL     1      48.112   4.170  16.668  0.00  0.00    +0.000 A 
ATOM      7  N   UNL     1      47.037   3.750  15.971  0.00  0.00    +0.000 NA
ATOM      8  C   UNL     1      46.639   4.553  14.964  0.00  0.00    +0.000 A 
BRANCH   6   9
ATOM      9  C   UNL     1      48.648   3.224  17.704  0.00  0.00    +0.000 C 
BRANCH   9  10
ATOM     10  C   UNL     1      49.340   2.010  17.075  0.00  0.00    +0.000 C 
BRANCH  10  11
ATOM     11  C   UNL     1      50.826   2.036  17.372  0.00  0.00    +0.000 A 
ATOM     12  C   UNL     1      51.457   3.230  17.703  0.00  0.00    +0.000 A 
ATOM     13  N   UNL     1      52.786   3.315  17.957  0.00  0.00    +0.000 NA
ATOM     14  C   UNL     1      53.464   2.147  17.890  0.00  0.00    +0.000 A 
ATOM     15  C   UNL     1      52.843   0.948  17.594  0.00  0.00    +0.000 A 
ATOM     16  N   UNL     1      51.519   0.864  17.337  0.00  0.00    +0.000 NA
ENDBRANCH  10  11
BRANCH  10  17
ATOM     17  O   UNL     1      49.183   1.956  15.653  0.00  0.00    +0.000 OA
ATOM     18  H   UNL     1      48.227   1.962  15.466  0.00  0.00    +0.000 HD
ENDBRANCH  10  17
ENDBRANCH   9  10
ENDBRANCH   6   9
ENDBRANCH   1   3
BRANCH   1  20
ATOM     19  C   UNL     1      47.953   7.139  11.459  0.00  0.00    +0.000 C 
ATOM     20  C   UNL     1      46.986   6.169  12.137  0.00  0.00    +0.000 C 
BRANCH  20  21
ATOM     21  C   UNL     1      45.594   6.269  11.491  0.00  0.00    +0.000 C 
ATOM     22  O   UNL     1      45.170   7.375  11.133  0.00  0.00    +0.000 OA
BRANCH  21  23
ATOM     23  C   UNL     1      44.786   5.070  11.253  0.00  0.00    +0.000 A 
ATOM     24  C   UNL     1      43.778   4.584  12.069  0.00  0.00    +0.000 A 
ATOM     25  S   UNL     1      43.371   2.958  11.694  0.00  0.00    +0.000 S 
ATOM     26  C   UNL     1      44.423   2.942  10.355  0.00  0.00    +0.000 A 
ATOM     27  N   UNL     1      44.644   1.824   9.615  0.00  0.00    +0.000 NA
ATOM     28  C   UNL     1      45.423   2.011   8.598  0.00  0.00    +0.000 A 
ATOM     29  N   UNL     1      45.960   3.219   8.226  0.00  0.00    +0.000 N 
ATOM     30  C   UNL     1      45.705   4.387   8.904  0.00  0.00    +0.000 A 
ATOM     31  O   UNL     1      45.987   5.480   8.429  0.00  0.00    +0.000 OA
ATOM     32  C   UNL     1      44.971   4.187  10.138  0.00  0.00    +0.000 A 
ATOM     33  H   UNL     1      46.452   3.320   7.351  0.00  0.00    +0.000 HD
ENDBRANCH  21  23
ENDBRANCH  20  21
ENDBRANCH   1  20
TORSDOF 8
ENDMDL
MODEL 4
REMARK VINA RESULT:    -8.005      1.110      1.450
REMARK INTER + INTRA:         -12.249
REMARK INTER:                 -11.214
REMARK INTRA:                  -1.035
REMARK UNBOUND:                -0.734
REMARK  Name = 
REMARK  9 active torsions:
REMARK  status: ('A' for Active; 'I' for Inactive)
REMARK    1  A    between atoms: C_1  and  C_2
REMARK    2  A    between atoms: C_2  and  N_3
REMARK    3  A    between atoms: C_2  and  C_19
REMARK    4  A    between atoms: N_3  and  C_4
REMARK    5  A    between atoms: C_7  and  C_8
REMARK    6  A    between atoms: C_8  and  C_9
REMARK    7  A    between atoms: C_9  and  O_10
REMARK    8  A    between atoms: C_9  and  C_11
REMARK    9  A    between atoms: C_19  and  C_21
REMARK                            x       y       z     vdW  Elec       q    Type
REMARK                         _______ _______ _______ _____ _____    ______ ____
ROOT
ATOM      1  N   UNL     1      46.847   5.313  15.065  0.00  0.00    +0.000 N 
ATOM      2  H   UNL     1      47.175   6.280  14.956  0.00  0.00    +0.000 HD
ENDROOT
BRANCH   1   3
ATOM      3  C   UNL     1      46.205   4.846  13.933  0.00  0.00    +0.000 A 
ATOM      4  C   UNL     1      45.327   5.657  13.228  0.00  0.00    +0.000 A 
ATOM      5  N   UNL     1      44.648   5.289  12.122  0.00  0.00    +0.000 NA
ATOM      6  C   UNL     1      44.877   4.041  11.688  0.00  0.00    +0.000 A 
ATOM      7  N   UNL     1      45.741   3.173  12.248  0.00  0.00    +0.000 NA
ATOM      8  C   UNL     1      46.386   3.613  13.348  0.00  0.00    +0.000 A 
BRANCH   6   9
ATOM      9  C   UNL     1      44.054   3.521  10.544  0.00  0.00    +0.000 C 
BRANCH   9  10
ATOM     10  C   UNL     1      44.461   4.150   9.207  0.00  0.00    +0.000 C 
BRANCH  10  11
ATOM     11  C   UNL     1      45.435   3.249   8.475  0.00  0.00    +0.000 A 
ATOM     12  C   UNL     1      45.489   1.890   8.763  0.00  0.00    +0.000 A 
ATOM     13  N   UNL     1      46.355   1.042   8.153  0.00  0.00    +0.000 NA
ATOM     14  C   UNL     1      47.155   1.604   7.221  0.00  0.00    +0.000 A 
ATOM     15  C   UNL     1      47.089   2.946   6.901  0.00  0.00    +0.000 A 
ATOM     16  N   UNL     1      46.230   3.793   7.511  0.00  0.00    +0.000 NA
ENDBRANCH  10  11
BRANCH  10  17
ATOM     17  O   UNL     1      45.086   5.429   9.361  0.00  0.00    +0.000 OA
ATOM     18  H   UNL     1      44.820   5.779  10.230  0.00  0.00    +0.000 HD
ENDBRANCH  10  17
ENDBRANCH   9  10
ENDBRANCH   6   9
ENDBRANCH   1   3
BRANCH   1  20
ATOM     19  C   UNL     1      47.081   3.844  16.990  0.00  0.00    +0.000 C 
ATOM     20  C   UNL     1      47.821   4.497  15.824  0.00  0.00    +0.000 C 
BRANCH  20  21
ATOM     21  C   UNL     1      48.929   5.426  16.352  0.00  0.00    +0.000 C 
ATOM     22  O   UNL     1      49.530   6.162  15.560  0.00  0.00    +0.000 OA
BRANCH  21  23
ATOM     23  C   UNL     1      49.249   5.481  17.781  0.00  0.00    +0.000 A 
ATOM     24  C   UNL     1      48.639   6.287  18.728  0.00  0.00    +0.000 A 
ATOM     25  S   UNL     1      49.560   6.393  20.174  0.00  0.00    +0.000 S 
ATOM     26  C   UNL     1      50.692   5.254  19.607  0.00  0.00    +0.000 A 
ATOM     27  N   UNL     1      51.811   4.929  20.304  0.00  0.00    +0.000 NA
ATOM     28  C   UNL     1      52.525   4.000  19.753  0.00  0.00    +0.000 A 
ATOM     29  N   UNL     1      52.198   3.336  18.596  0.00  0.00    +0.000 N 
ATOM     30  C   UNL     1      51.040   3.582  17.897  0.00  0.00    +0.000 A 
ATOM     31  O   UNL     1      50.648   2.827  17.017  0.00  0.00    +0.000 OA
ATOM     32  C   UNL     1      50.300   4.725  18.396  0.00  0.00    +0.000 A 
ATOM     33  H   UNL     1      52.730   2.534  18.291  0.00  0.00    +0.000 HD
ENDBRANCH  21  23
ENDBRANCH  20  21
ENDBRANCH   1  20
TORSDOF 8
ENDMDL
MODEL 5
REMARK VINA RESULT:    -7.693      2.371      3.575
REMARK INTER + INTRA:         -11.801
REMARK INTER:                 -10.702
REMARK INTRA:                  -1.099
REMARK UNBOUND:                -0.734
REMARK  Name = 
REMARK  9 active torsions:
REMARK  status: ('A' for Active; 'I' for Inactive)
REMARK    1  A    between atoms: C_1  and  C_2
REMARK    2  A    between atoms: C_2  and  N_3
REMARK    3  A    between atoms: C_2  and  C_19
REMARK    4  A    between atoms: N_3  and  C_4
REMARK    5  A    between atoms: C_7  and  C_8
REMARK    6  A    between atoms: C_8  and  C_9
REMARK    7  A    between atoms: C_9  and  O_10
REMARK    8  A    between atoms: C_9  and  C_11
REMARK    9  A    between atoms: C_19  and  C_21
REMARK                            x       y       z     vdW  Elec       q    Type
REMARK                         _______ _______ _______ _____ _____    ______ ____
ROOT
ATOM      1  N   UNL     1      47.244   4.965  15.359  0.00  0.00    +0.000 N 
ATOM      2  H   UNL     1      47.849   5.780  15.193  0.00  0.00    +0.000 HD
ENDROOT
BRANCH   1   3
ATOM      3  C   UNL     1      46.519   4.614  14.236  0.00  0.00    +0.000 A 
ATOM      4  C   UNL     1      45.689   5.533  13.609  0.00  0.00    +0.000 A 
ATOM      5  N   UNL     1      44.936   5.281  12.518  0.00  0.00    +0.000 NA
ATOM      6  C   UNL     1      45.036   4.043  12.016  0.00  0.00    +0.000 A 
ATOM      7  N   UNL     1      45.841   3.075  12.496  0.00  0.00    +0.000 NA
ATOM      8  C   UNL     1      46.566   3.401  13.586  0.00  0.00    +0.000 A 
BRANCH   6   9
ATOM      9  C   UNL     1      44.124   3.655  10.887  0.00  0.00    +0.000 C 
BRANCH   9  10
ATOM     10  C   UNL     1      44.509   4.342   9.572  0.00  0.00    +0.000 C 
BRANCH  10  11
ATOM     11  C   UNL     1      45.380   3.428   8.734  0.00  0.00    +0.000 A 
ATOM     12  C   UNL     1      45.365   2.054   8.944  0.00  0.00    +0.000 A 
ATOM     13  N   UNL     1      46.139   1.192   8.237  0.00  0.00    +0.000 NA
ATOM     14  C   UNL     1      46.918   1.759   7.289  0.00  0.00    +0.000 A 
ATOM     15  C   UNL     1      46.918   3.119   7.048  0.00  0.00    +0.000 A 
ATOM     16  N   UNL     1      46.151   3.979   7.754  0.00  0.00    +0.000 NA
ENDBRANCH  10  11
BRANCH  10  17
ATOM     17  O   UNL     1      45.230   5.563   9.773  0.00  0.00    +0.000 OA
ATOM     18  H   UNL     1      45.236   6.039   8.923  0.00  0.00    +0.000 HD
ENDBRANCH  10  17
ENDBRANCH   9  10
ENDBRANCH   6   9
ENDBRANCH   1   3
BRANCH   1  20
ATOM     19  C   UNL     1      46.880   3.434  17.214  0.00  0.00    +0.000 C 
ATOM     20  C   UNL     1      47.913   3.966  16.222  0.00  0.00    +0.000 C 
BRANCH  20  21
ATOM     21  C   UNL     1      49.061   4.661  16.974  0.00  0.00    +0.000 C 
ATOM     22  O   UNL     1      50.187   4.148  16.966  0.00  0.00    +0.000 OA
BRANCH  21  23
ATOM     23  C   UNL     1      48.850   5.940  17.658  0.00  0.00    +0.000 A 
ATOM     24  C   UNL     1      48.416   6.111  18.962  0.00  0.00    +0.000 A 
ATOM     25  S   UNL     1      47.879   7.716  19.258  0.00  0.00    +0.000 S 
ATOM     26  C   UNL     1      48.358   8.225  17.705  0.00  0.00    +0.000 A 
ATOM     27  N   UNL     1      48.115   9.479  17.241  0.00  0.00    +0.000 NA
ATOM     28  C   UNL     1      48.605   9.711  16.066  0.00  0.00    +0.000 A 
ATOM     29  N   UNL     1      49.355   8.823  15.335  0.00  0.00    +0.000 N 
ATOM     30  C   UNL     1      49.686   7.571  15.795  0.00  0.00    +0.000 A 
ATOM     31  O   UNL     1      50.544   6.890  15.248  0.00  0.00    +0.000 OA
ATOM     32  C   UNL     1      49.019   7.220  17.034  0.00  0.00    +0.000 A 
ATOM     33  H   UNL     1      49.816   9.111  14.484  0.00  0.00    +0.000 HD
ENDBRANCH  21  23
ENDBRANCH  20  21
ENDBRANCH   1  20
TORSDOF 8
ENDMDL
MODEL 6
REMARK VINA RESULT:    -7.610      2.405      3.270
REMARK INTER + INTRA:         -11.682
REMARK INTER:                 -11.744
REMARK INTRA:                   0.063
REMARK UNBOUND:                -0.734
REMARK  Name = 
REMARK  9 active torsions:
REMARK  status: ('A' for Active; 'I' for Inactive)
REMARK    1  A    between atoms: C_1  and  C_2
REMARK    2  A    between atoms: C_2  and  N_3
REMARK    3  A    between atoms: C_2  and  C_19
REMARK    4  A    between atoms: N_3  and  C_4
REMARK    5  A    between atoms: C_7  and  C_8
REMARK    6  A    between atoms: C_8  and  C_9
REMARK    7  A    between atoms: C_9  and  O_10
REMARK    8  A    between atoms: C_9  and  C_11
REMARK    9  A    between atoms: C_19  and  C_21
REMARK                            x       y       z     vdW  Elec       q    Type
REMARK                         _______ _______ _______ _____ _____    ______ ____
ROOT
ATOM      1  N   UNL     1      46.232   7.868  13.402  0.00  0.00    +0.000 N 
ATOM      2  H   UNL     1      45.719   8.755  13.320  0.00  0.00    +0.000 HD
ENDROOT
BRANCH   1   3
ATOM      3  C   UNL     1      45.740   6.899  12.548  0.00  0.00    +0.000 A 
ATOM      4  C   UNL     1      46.257   6.748  11.269  0.00  0.00    +0.000 A 
ATOM      5  N   UNL     1      45.836   5.842  10.364  0.00  0.00    +0.000 NA
ATOM      6  C   UNL     1      44.852   5.027  10.770  0.00  0.00    +0.000 A 
ATOM      7  N   UNL     1      44.299   5.035  11.998  0.00  0.00    +0.000 NA
ATOM      8  C   UNL     1      44.773   5.966  12.851  0.00  0.00    +0.000 A 
BRANCH   6   9
ATOM      9  C   UNL     1      44.244   4.088   9.768  0.00  0.00    +0.000 C 
BRANCH   9  10
ATOM     10  C   UNL     1      44.913   2.709   9.790  0.00  0.00    +0.000 C 
BRANCH  10  11
ATOM     11  C   UNL     1      45.727   2.497   8.529  0.00  0.00    +0.000 A 
ATOM     12  C   UNL     1      45.878   3.527   7.608  0.00  0.00    +0.000 A 
ATOM     13  N   UNL     1      46.578   3.386   6.454  0.00  0.00    +0.000 NA
ATOM     14  C   UNL     1      47.144   2.174   6.265  0.00  0.00    +0.000 A 
ATOM     15  C   UNL     1      47.029   1.152   7.188  0.00  0.00    +0.000 A 
ATOM     16  N   UNL     1      46.328   1.290   8.336  0.00  0.00    +0.000 NA
ENDBRANCH  10  11
BRANCH  10  17
ATOM     17  O   UNL     1      43.971   1.635   9.883  0.00  0.00    +0.000 OA
ATOM     18  H   UNL     1      43.109   2.025  10.115  0.00  0.00    +0.000 HD
ENDBRANCH  10  17
ENDBRANCH   9  10
ENDBRANCH   6   9
ENDBRANCH   1   3
BRANCH   1  20
ATOM     19  C   UNL     1      48.283   8.475  12.243  0.00  0.00    +0.000 C 
ATOM     20  C   UNL     1      47.680   8.100  13.596  0.00  0.00    +0.000 C 
BRANCH  20  21
ATOM     21  C   UNL     1      48.317   6.801  14.119  0.00  0.00    +0.000 C 
ATOM     22  O   UNL     1      48.757   5.974  13.311  0.00  0.00    +0.000 OA
BRANCH  21  23
ATOM     23  C   UNL     1      48.449   6.552  15.557  0.00  0.00    +0.000 A 
ATOM     24  C   UNL     1      48.956   7.432  16.500  0.00  0.00    +0.000 A 
ATOM     25  S   UNL     1      49.352   6.641  17.973  0.00  0.00    +0.000 S 
ATOM     26  C   UNL     1      48.716   5.162  17.419  0.00  0.00    +0.000 A 
ATOM     27  N   UNL     1      48.802   4.015  18.141  0.00  0.00    +0.000 NA
ATOM     28  C   UNL     1      48.209   3.002  17.596  0.00  0.00    +0.000 A 
ATOM     29  N   UNL     1      47.500   3.042  16.420  0.00  0.00    +0.000 N 
ATOM     30  C   UNL     1      47.327   4.196  15.693  0.00  0.00    +0.000 A 
ATOM     31  O   UNL     1      46.503   4.270  14.790  0.00  0.00    +0.000 OA
ATOM     32  C   UNL     1      48.111   5.310  16.190  0.00  0.00    +0.000 A 
ATOM     33  H   UNL     1      46.953   2.249  16.116  0.00  0.00    +0.000 HD
ENDBRANCH  21  23
ENDBRANCH  20  21
ENDBRANCH   1  20
TORSDOF 8
ENDMDL
MODEL 7
REMARK VINA RESULT:    -7.505      1.989      2.599
REMARK INTER + INTRA:         -11.530
REMARK INTER:                 -10.510
REMARK INTRA:                  -1.020
REMARK UNBOUND:                -0.734
REMARK  Name = 
REMARK  9 active torsions:
REMARK  status: ('A' for Active; 'I' for Inactive)
REMARK    1  A    between atoms: C_1  and  C_2
REMARK    2  A    between atoms: C_2  and  N_3
REMARK    3  A    between atoms: C_2  and  C_19
REMARK    4  A    between atoms: N_3  and  C_4
REMARK    5  A    between atoms: C_7  and  C_8
REMARK    6  A    between atoms: C_8  and  C_9
REMARK    7  A    between atoms: C_9  and  O_10
REMARK    8  A    between atoms: C_9  and  C_11
REMARK    9  A    between atoms: C_19  and  C_21
REMARK                            x       y       z     vdW  Elec       q    Type
REMARK                         _______ _______ _______ _____ _____    ______ ____
ROOT
ATOM      1  N   UNL     1      47.727   5.851  14.703  0.00  0.00    +0.000 N 
ATOM      2  H   UNL     1      47.519   5.748  15.704  0.00  0.00    +0.000 HD
ENDROOT
BRANCH   1   3
ATOM      3  C   UNL     1      46.811   5.191  13.907  0.00  0.00    +0.000 A 
ATOM      4  C   UNL     1      45.795   5.884  13.265  0.00  0.00    +0.000 A 
ATOM      5  N   UNL     1      44.851   5.327  12.479  0.00  0.00    +0.000 NA
ATOM      6  C   UNL     1      44.942   4.001  12.312  0.00  0.00    +0.000 A 
ATOM      7  N   UNL     1      45.906   3.219  12.835  0.00  0.00    +0.000 NA
ATOM      8  C   UNL     1      46.817   3.846  13.607  0.00  0.00    +0.000 A 
BRANCH   6   9
ATOM      9  C   UNL     1      43.846   3.299  11.562  0.00  0.00    +0.000 C 
BRANCH   9  10
ATOM     10  C   UNL     1      43.632   3.891  10.165  0.00  0.00    +0.000 C 
BRANCH  10  11
ATOM     11  C   UNL     1      44.732   3.440   9.225  0.00  0.00    +0.000 A 
ATOM     12  C   UNL     1      45.417   4.367   8.447  0.00  0.00    +0.000 A 
ATOM     13  N   UNL     1      46.395   4.017   7.574  0.00  0.00    +0.000 NA
ATOM     14  C   UNL     1      46.681   2.697   7.525  0.00  0.00    +0.000 A 
ATOM     15  C   UNL     1      46.031   1.769   8.317  0.00  0.00    +0.000 A 
ATOM     16  N   UNL     1      45.054   2.117   9.183  0.00  0.00    +0.000 NA
ENDBRANCH  10  11
BRANCH  10  17
ATOM     17  O   UNL     1      43.621   5.323  10.163  0.00  0.00    +0.000 OA
ATOM     18  H   UNL     1      44.167   5.617   9.411  0.00  0.00    +0.000 HD
ENDBRANCH  10  17
ENDBRANCH   9  10
ENDBRANCH   6   9
ENDBRANCH   1   3
BRANCH   1  20
ATOM     19  C   UNL     1      49.266   7.097  13.289  0.00  0.00    +0.000 C 
ATOM     20  C   UNL     1      48.218   7.213  14.395  0.00  0.00    +0.000 C 
BRANCH  20  21
ATOM     21  C   UNL     1      48.851   7.803  15.666  0.00  0.00    +0.000 C 
ATOM     22  O   UNL     1      48.290   8.745  16.241  0.00  0.00    +0.000 OA
BRANCH  21  23
ATOM     23  C   UNL     1      50.081   7.239  16.229  0.00  0.00    +0.000 A 
ATOM     24  C   UNL     1      51.357   7.763  16.103  0.00  0.00    +0.000 A 
ATOM     25  S   UNL     1      52.569   6.616  16.511  0.00  0.00    +0.000 S 
ATOM     26  C   UNL     1      51.405   5.471  16.997  0.00  0.00    +0.000 A 
ATOM     27  N   UNL     1      51.738   4.212  17.383  0.00  0.00    +0.000 NA
ATOM     28  C   UNL     1      50.733   3.499  17.780  0.00  0.00    +0.000 A 
ATOM     29  N   UNL     1      49.437   3.944  17.871  0.00  0.00    +0.000 N 
ATOM     30  C   UNL     1      49.067   5.231  17.559  0.00  0.00    +0.000 A 
ATOM     31  O   UNL     1      47.971   5.679  17.871  0.00  0.00    +0.000 OA
ATOM     32  C   UNL     1      50.136   6.006  16.959  0.00  0.00    +0.000 A 
ATOM     33  H   UNL     1      48.724   3.380  18.310  0.00  0.00    +0.000 HD
ENDBRANCH  21  23
ENDBRANCH  20  21
ENDBRANCH   1  20
TORSDOF 8
ENDMDL
MODEL 8
REMARK VINA RESULT:    -7.468      2.460      3.186
REMARK INTER + INTRA:         -11.477
REMARK INTER:                  -9.888
REMARK INTRA:                  -1.589
REMARK UNBOUND:                -0.734
REMARK  Name = 
REMARK  9 active torsions:
REMARK  status: ('A' for Active; 'I' for Inactive)
REMARK    1  A    between atoms: C_1  and  C_2
REMARK    2  A    between atoms: C_2  and  N_3
REMARK    3  A    between atoms: C_2  and  C_19
REMARK    4  A    between atoms: N_3  and  C_4
REMARK    5  A    between atoms: C_7  and  C_8
REMARK    6  A    between atoms: C_8  and  C_9
REMARK    7  A    between atoms: C_9  and  O_10
REMARK    8  A    between atoms: C_9  and  C_11
REMARK    9  A    between atoms: C_19  and  C_21
REMARK                            x       y       z     vdW  Elec       q    Type
REMARK                         _______ _______ _______ _____ _____    ______ ____
ROOT
ATOM      1  N   UNL     1      48.477   6.009  14.249  0.00  0.00    +0.000 N 
ATOM      2  H   UNL     1      48.943   5.324  14.857  0.00  0.00    +0.000 HD
ENDROOT
BRANCH   1   3
ATOM      3  C   UNL     1      47.255   5.555  13.789  0.00  0.00    +0.000 A 
ATOM      4  C   UNL     1      46.316   6.437  13.272  0.00  0.00    +0.000 A 
ATOM      5  N   UNL     1      45.097   6.090  12.811  0.00  0.00    +0.000 NA
ATOM      6  C   UNL     1      44.810   4.782  12.852  0.00  0.00    +0.000 A 
ATOM      7  N   UNL     1      45.649   3.818  13.280  0.00  0.00    +0.000 NA
ATOM      8  C   UNL     1      46.851   4.240  13.723  0.00  0.00    +0.000 A 
BRANCH   6   9
ATOM      9  C   UNL     1      43.422   4.344  12.482  0.00  0.00    +0.000 C 
BRANCH   9  10
ATOM     10  C   UNL     1      43.069   4.707  11.036  0.00  0.00    +0.000 C 
BRANCH  10  11
ATOM     11  C   UNL     1      43.986   3.985  10.070  0.00  0.00    +0.000 A 
ATOM     12  C   UNL     1      44.844   4.702   9.244  0.00  0.00    +0.000 A 
ATOM     13  N   UNL     1      45.670   4.109   8.347  0.00  0.00    +0.000 NA
ATOM     14  C   UNL     1      45.623   2.758   8.322  0.00  0.00    +0.000 A 
ATOM     15  C   UNL     1      44.800   2.032   9.160  0.00  0.00    +0.000 A 
ATOM     16  N   UNL     1      43.973   2.622  10.052  0.00  0.00    +0.000 NA
ENDBRANCH  10  11
BRANCH  10  17
ATOM     17  O   UNL     1      43.180   6.110  10.772  0.00  0.00    +0.000 OA
ATOM     18  H   UNL     1      43.207   6.566  11.632  0.00  0.00    +0.000 HD
ENDBRANCH  10  17
ENDBRANCH   9  10
ENDBRANCH   6   9
ENDBRANCH   1   3
BRANCH   1  20
ATOM     19  C   UNL     1      49.499   8.146  13.693  0.00  0.00    +0.000 C 
ATOM     20  C   UNL     1      48.682   7.390  14.740  0.00  0.00    +0.000 C 
BRANCH  20  21
ATOM     21  C   UNL     1      49.453   7.326  16.069  0.00  0.00    +0.000 C 
ATOM     22  O   UNL     1      50.689   7.382  16.056  0.00  0.00    +0.000 OA
BRANCH  21  23
ATOM     23  C   UNL     1      48.744   7.246  17.349  0.00  0.00    +0.000 A 
ATOM     24  C   UNL     1      48.099   8.287  17.997  0.00  0.00    +0.000 A 
ATOM     25  S   UNL     1      47.773   7.919  19.643  0.00  0.00    +0.000 S 
ATOM     26  C   UNL     1      48.351   6.327  19.464  0.00  0.00    +0.000 A 
ATOM     27  N   UNL     1      48.450   5.465  20.508  0.00  0.00    +0.000 NA
ATOM     28  C   UNL     1      48.848   4.279  20.178  0.00  0.00    +0.000 A 
ATOM     29  N   UNL     1      49.110   3.863  18.895  0.00  0.00    +0.000 N 
ATOM     30  C   UNL     1      48.955   4.681  17.801  0.00  0.00    +0.000 A 
ATOM     31  O   UNL     1      48.956   4.236  16.660  0.00  0.00    +0.000 OA
ATOM     32  C   UNL     1      48.667   6.059  18.150  0.00  0.00    +0.000 A 
ATOM     33  H   UNL     1      49.291   2.891  18.692  0.00  0.00    +0.000 HD
ENDBRANCH  21  23
ENDBRANCH  20  21
ENDBRANCH   1  20
TORSDOF 8
ENDMDL
MODEL 9
REMARK VINA RESULT:    -7.162      4.149      6.278
REMARK INTER + INTRA:         -11.037
REMARK INTER:                  -9.878
REMARK INTRA:                  -1.159
REMARK UNBOUND:                -0.734
REMARK  Name = 
REMARK  9 active torsions:
REMARK  status: ('A' for Active; 'I' for Inactive)
REMARK    1  A    between atoms: C_1  and  C_2
REMARK    2  A    between atoms: C_2  and  N_3
REMARK    3  A    between atoms: C_2  and  C_19
REMARK    4  A    between atoms: N_3  and  C_4
REMARK    5  A    between atoms: C_7  and  C_8
REMARK    6  A    between atoms: C_8  and  C_9
REMARK    7  A    between atoms: C_9  and  O_10
REMARK    8  A    between atoms: C_9  and  C_11
REMARK    9  A    between atoms: C_19  and  C_21
REMARK                            x       y       z     vdW  Elec       q    Type
REMARK                         _______ _______ _______ _____ _____    ______ ____
ROOT
ATOM      1  N   UNL     1      46.764   6.528  14.011  0.00  0.00    +0.000 N 
ATOM      2  H   UNL     1      46.243   7.349  14.343  0.00  0.00    +0.000 HD
ENDROOT
BRANCH   1   3
ATOM      3  C   UNL     1      46.166   5.937  12.914  0.00  0.00    +0.000 A 
ATOM      4  C   UNL     1      45.164   4.991  13.074  0.00  0.00    +0.000 A 
ATOM      5  N   UNL     1      44.530   4.354  12.068  0.00  0.00    +0.000 NA
ATOM      6  C   UNL     1      44.910   4.699  10.830  0.00  0.00    +0.000 A 
ATOM      7  N   UNL     1      45.830   5.638  10.536  0.00  0.00    +0.000 NA
ATOM      8  C   UNL     1      46.419   6.234  11.593  0.00  0.00    +0.000 A 
BRANCH   6   9
ATOM      9  C   UNL     1      44.343   3.932   9.669  0.00  0.00    +0.000 C 
BRANCH   9  10
ATOM     10  C   UNL     1      44.957   2.534   9.546  0.00  0.00    +0.000 C 
BRANCH  10  11
ATOM     11  C   UNL     1      45.815   2.442   8.301  0.00  0.00    +0.000 A 
ATOM     12  C   UNL     1      46.490   1.264   7.997  0.00  0.00    +0.000 A 
ATOM     13  N   UNL     1      47.288   1.133   6.908  0.00  0.00    +0.000 NA
ATOM     14  C   UNL     1      47.369   2.224   6.115  0.00  0.00    +0.000 A 
ATOM     15  C   UNL     1      46.678   3.389   6.387  0.00  0.00    +0.000 A 
ATOM     16  N   UNL     1      45.886   3.523   7.475  0.00  0.00    +0.000 NA
ENDBRANCH  10  11
BRANCH  10  17
ATOM     17  O   UNL     1      43.972   1.498   9.471  0.00  0.00    +0.000 OA
ATOM     18  H   UNL     1      43.129   1.876   9.781  0.00  0.00    +0.000 HD
ENDBRANCH  10  17
ENDBRANCH   9  10
ENDBRANCH   6   9
ENDBRANCH   1   3
BRANCH   1  20
ATOM     19  C   UNL     1      48.690   6.251  15.471  0.00  0.00    +0.000 C 
ATOM     20  C   UNL     1      48.225   6.746  14.102  0.00  0.00    +0.000 C 
BRANCH  20  21
ATOM     21  C   UNL     1      48.504   8.252  13.960  0.00  0.00    +0.000 C 
ATOM     22  O   UNL     1      48.228   9.010  14.899  0.00  0.00    +0.000 OA
BRANCH  21  23
ATOM     23  C   UNL     1      49.132   8.792  12.751  0.00  0.00    +0.000 A 
ATOM     24  C   UNL     1      50.390   8.474  12.267  0.00  0.00    +0.000 A 
ATOM     25  S   UNL     1      50.939   9.611  11.101  0.00  0.00    +0.000 S 
ATOM     26  C   UNL     1      49.453  10.442  11.125  0.00  0.00    +0.000 A 
ATOM     27  N   UNL     1      49.246  11.587  10.425  0.00  0.00    +0.000 NA
ATOM     28  C   UNL     1      48.040  12.047  10.509  0.00  0.00    +0.000 A 
ATOM     29  N   UNL     1      47.011  11.443  11.189  0.00  0.00    +0.000 N 
ATOM     30  C   UNL     1      47.156  10.248  11.852  0.00  0.00    +0.000 A 
ATOM     31  O   UNL     1      46.189   9.607  12.243  0.00  0.00    +0.000 OA
ATOM     32  C   UNL     1      48.531   9.789  11.913  0.00  0.00    +0.000 A 
ATOM     33  H   UNL     1      46.064  11.785  11.108  0.00  0.00    +0.000 HD
ENDBRANCH  21  23
ENDBRANCH  20  21
ENDBRANCH   1  20
TORSDOF 8
ENDMDL
