MODEL 1
REMARK VINA RESULT:    -8.352      0.000      0.000
REMARK INTER + INTRA:         -13.040
REMARK INTER:                 -11.770
REMARK INTRA:                  -1.270
REMARK UNBOUND:                -1.270
REMARK  Name = 
REMARK  9 active torsions:
REMARK  status: ('A' for Active; 'I' for Inactive)
REMARK    1  A    between atoms: C_1  and  N_2
REMARK    2  A    between atoms: N_2  and  C_3
REMARK    3  A    between atoms: N_2  and  C_10
REMARK    4  A    between atoms: C_3  and  C_4
REMARK    5  A    between atoms: C_10  and  C_11
REMARK    6  A    between atoms: C_14  and  C_15
REMARK    7  A    between atoms: C_15  and  N_16
REMARK    8  A    between atoms: C_17  and  C_19
REMARK    9  A    between atoms: N_21  and  C_22
REMARK                            x       y       z     vdW  Elec       q    Type
REMARK                         _______ _______ _______ _____ _____    ______ ____
ROOT
ATOM      1  C   UNL     1      44.886   5.611  11.060  0.00  0.00    +0.000 A 
ATOM      2  C   UNL     1      46.218   5.878  10.716  0.00  0.00    +0.000 A 
ATOM      3  C   UNL     1      46.982   6.777  11.466  0.00  0.00    +0.000 A 
ATOM      4  C   UNL     1      46.430   7.425  12.579  0.00  0.00    +0.000 A 
ATOM      5  C   UNL     1      45.091   7.179  12.909  0.00  0.00    +0.000 A 
ATOM      6  C   UNL     1      44.328   6.277  12.161  0.00  0.00    +0.000 A 
ENDROOT
BRANCH   1   7
ATOM      7  C   UNL     1      44.051   4.639  10.245  0.00  0.00    +0.000 C 
BRANCH   7   9
ATOM      8  C   UNL     1      43.614   2.591  11.466  0.00  0.00    +0.000 C 
ATOM      9  N   UNL     1      44.430   3.221  10.419  0.00  0.00    +0.000 NA
BRANCH   9  10
ATOM     10  C   UNL     1      44.251   2.470   9.159  0.00  0.00    +0.000 C 
BRANCH  10  11
ATOM     11  C   UNL     1      45.476   2.435   8.268  0.00  0.00    +0.000 A 
ATOM     12  C   UNL     1      46.234   1.262   8.135  0.00  0.00    +0.000 A 
ATOM     13  C   UNL     1      47.364   1.238   7.315  0.00  0.00    +0.000 A 
ATOM     14  C   UNL     1      47.747   2.382   6.618  0.00  0.00    +0.000 A 
ATOM     15  C   UNL     1      46.996   3.549   6.731  0.00  0.00    +0.000 A 
ATOM     16  C   UNL     1      45.864   3.575   7.549  0.00  0.00    +0.000 A 
ENDBRANCH  10  11
ENDBRANCH   9  10
ENDBRANCH   7   9
ENDBRANCH   1   7
BRANCH   4  17
ATOM     17  C   UNL     1      47.257   8.374  13.406  0.00  0.00    +0.000 C 
BRANCH  17  18
ATOM     18  N   UNL     1      47.723   7.762  14.625  0.00  0.00    +0.000 N 
ATOM     19  C   UNL     1      48.927   7.092  14.642  0.00  0.00    +0.000 C 
ATOM     20  O   UNL     1      49.605   6.930  13.636  0.00  0.00    +0.000 OA
ATOM     21  H   UNL     1      47.277   8.007  15.497  0.00  0.00    +0.000 HD
BRANCH  19  22
ATOM     22  C   UNL     1      49.319   6.569  15.946  0.00  0.00    +0.000 A 
ATOM     23  C   UNL     1      50.303   7.127  16.757  0.00  0.00    +0.000 A 
ATOM     24  N   UNL     1      50.326   6.445  17.943  0.00  0.00    +0.000 N 
ATOM     25  C   UNL     1      51.173   6.752  19.073  0.00  0.00    +0.000 C 
ATOM     26  C   UNL     1      49.407   5.434  17.915  0.00  0.00    +0.000 A 
ATOM     27  N   UNL     1      49.185   4.572  18.922  0.00  0.00    +0.000 NA
ATOM     28  C   UNL     1      48.238   3.671  18.624  0.00  0.00    +0.000 A 
ATOM     29  N   UNL     1      47.549   3.555  17.481  0.00  0.00    +0.000 NA
ATOM     30  C   UNL     1      47.813   4.456  16.520  0.00  0.00    +0.000 A 
ATOM     31 CL   UNL     1      47.017   4.231  15.040  0.00  0.00    +0.000 Cl
ATOM     32  C   UNL     1      48.762   5.463  16.681  0.00  0.00    +0.000 A 
ENDBRANCH  19  22
ENDBRANCH  17  18
ENDBRANCH   4  17
TORSDOF 7
ENDMDL
MODEL 2
REMARK VINA RESULT:    -7.832      2.044      2.425
REMARK INTER + INTRA:         -12.307
REMARK INTER:                 -11.554
REMARK INTRA:                  -0.754
REMARK UNBOUND:                -1.270
REMARK  Name = 
REMARK  9 active torsions:
REMARK  status: ('A' for Active; 'I' for Inactive)
REMARK    1  A    between atoms: C_1  and  N_2
REMARK    2  A    between atoms: N_2  and  C_3
REMARK    3  A    between atoms: N_2  and  C_10
REMARK    4  A    between atoms: C_3  and  C_4
REMARK    5  A    between atoms: C_10  and  C_11
REMARK    6  A    between atoms: C_14  and  C_15
REMARK    7  A    between atoms: C_15  and  N_16
REMARK    8  A    between atoms: C_17  and  C_19
REMARK    9  A    between atoms: N_21  and  C_22
REMARK                            x       y       z     vdW  Elec       q    Type
REMARK                         _______ _______ _______ _____ _____    ______ ____
ROOT
ATOM      1  C   UNL     1      45.598   5.437  11.698  0.00  0.00    +0.000 A 
ATOM      2  C   UNL     1      46.299   6.587  11.311  0.00  0.00    +0.000 A 
ATOM      3  C   UNL     1      47.344   7.083  12.097  0.00  0.00    +0.000 A 
ATOM      4  C   UNL     1      47.712   6.437  13.284  0.00  0.00    +0.000 A 
ATOM      5  C   UNL     1      46.995   5.302  13.685  0.00  0.00    +0.000 A 
ATOM      6  C   UNL     1      45.952   4.804  12.899  0.00  0.00    +0.000 A 
ENDROOT
BRANCH   1   7
ATOM      7  C   UNL     1      44.458   4.897  10.851  0.00  0.00    +0.000 C 
BRANCH   7   9
ATOM      8  C   UNL     1      43.570   2.717  11.427  0.00  0.00    +0.000 C 
ATOM      9  N   UNL     1      44.534   3.444  10.589  0.00  0.00    +0.000 NA
BRANCH   9  10
ATOM     10  C   UNL     1      44.248   3.150   9.169  0.00  0.00    +0.000 C 
BRANCH  10  11
ATOM     11  C   UNL     1      45.448   2.684   8.370  0.00  0.00    +0.000 A 
ATOM     12  C   UNL     1      46.202   3.590   7.610  0.00  0.00    +0.000 A 
ATOM     13  C   UNL     1      47.304   3.153   6.873  0.00  0.00    +0.000 A 
ATOM     14  C   UNL     1      47.668   1.808   6.891  0.00  0.00    +0.000 A 
ATOM     15  C   UNL     1      46.937   0.900   7.652  0.00  0.00    +0.000 A 
ATOM     16  C   UNL     1      45.835   1.335   8.391  0.00  0.00    +0.000 A 
ENDBRANCH  10  11
ENDBRANCH   9  10
ENDBRANCH   7   9
ENDBRANCH   1   7
BRANCH   4  17
ATOM     17  C   UNL     1      48.854   6.952  14.119  0.00  0.00    +0.000 C 
BRANCH  17  18
ATOM     18  N   UNL     1      48.471   7.150  15.495  0.00  0.00    +0.000 N 
ATOM     19  C   UNL     1      49.296   6.713  16.508  0.00  0.00    +0.000 C 
ATOM     20  O   UNL     1      50.330   6.094  16.295  0.00  0.00    +0.000 OA
ATOM     21  H   UNL     1      47.717   7.788  15.706  0.00  0.00    +0.000 HD
BRANCH  19  22
ATOM     22  C   UNL     1      48.831   7.026  17.855  0.00  0.00    +0.000 A 
ATOM     23  C   UNL     1      48.362   8.272  18.259  0.00  0.00    +0.000 A 
ATOM     24  N   UNL     1      47.913   8.170  19.547  0.00  0.00    +0.000 N 
ATOM     25  C   UNL     1      47.300   9.232  20.311  0.00  0.00    +0.000 C 
ATOM     26  C   UNL     1      48.108   6.897  20.007  0.00  0.00    +0.000 A 
ATOM     27  N   UNL     1      47.781   6.469  21.239  0.00  0.00    +0.000 NA
ATOM     28  C   UNL     1      48.094   5.179  21.431  0.00  0.00    +0.000 A 
ATOM     29  N   UNL     1      48.676   4.340  20.564  0.00  0.00    +0.000 NA
ATOM     30  C   UNL     1      48.966   4.831  19.346  0.00  0.00    +0.000 A 
ATOM     31 CL   UNL     1      49.803   3.793  18.299  0.00  0.00    +0.000 Cl
ATOM     32  C   UNL     1      48.692   6.148  18.988  0.00  0.00    +0.000 A 
ENDBRANCH  19  22
ENDBRANCH  17  18
ENDBRANCH   4  17
TORSDOF 7
ENDMDL
MODEL 3
REMARK VINA RESULT:    -7.567      1.460      1.502
REMARK INTER + INTRA:         -11.934
REMARK INTER:                 -10.834
REMARK INTRA:                  -1.100
REMARK UNBOUND:                -1.270
REMARK  Name = 
REMARK  9 active torsions:
REMARK  status: ('A' for Active; 'I' for Inactive)
REMARK    1  A    between atoms: C_1  and  N_2
REMARK    2  A    between atoms: N_2  and  C_3
REMARK    3  A    between atoms: N_2  and  C_10
REMARK    4  A    between atoms: C_3  and  C_4
REMARK    5  A    between atoms: C_10  and  C_11
REMARK    6  A    between atoms: C_14  and  C_15
REMARK    7  A    between atoms: C_15  and  N_16
REMARK    8  A    between atoms: C_17  and  C_19
REMARK    9  A    between atoms: N_21  and  C_22
REMARK                            x       y       z     vdW  Elec       q    Type
REMARK                         _______ _______ _______ _____ _____    ______ ____
ROOT
ATOM      1  C   UNL     1      45.003   6.063  11.652  0.00  0.00    +0.000 A 
ATOM      2  C   UNL     1      46.161   5.417  12.107  0.00  0.00    +0.000 A 
ATOM      3  C   UNL     1      47.100   6.101  12.886  0.00  0.00    +0.000 A 
ATOM      4  C   UNL     1      46.897   7.444  13.230  0.00  0.00    +0.000 A 
ATOM      5  C   UNL     1      45.752   8.097  12.755  0.00  0.00    +0.000 A 
ATOM      6  C   UNL     1      44.813   7.413  11.979  0.00  0.00    +0.000 A 
ENDROOT
BRANCH   1   7
ATOM      7  C   UNL     1      43.984   5.326  10.801  0.00  0.00    +0.000 C 
BRANCH   7   9
ATOM      8  C   UNL     1      43.590   2.954  11.110  0.00  0.00    +0.000 C 
ATOM      9  N   UNL     1      44.397   3.961  10.408  0.00  0.00    +0.000 NA
BRANCH   9  10
ATOM     10  C   UNL     1      44.243   3.764   8.951  0.00  0.00    +0.000 C 
BRANCH  10  11
ATOM     11  C   UNL     1      45.394   3.034   8.290  0.00  0.00    +0.000 A 
ATOM     12  C   UNL     1      45.551   1.649   8.447  0.00  0.00    +0.000 A 
ATOM     13  C   UNL     1      46.617   0.983   7.838  0.00  0.00    +0.000 A 
ATOM     14  C   UNL     1      47.534   1.691   7.064  0.00  0.00    +0.000 A 
ATOM     15  C   UNL     1      47.382   3.064   6.889  0.00  0.00    +0.000 A 
ATOM     16  C   UNL     1      46.316   3.732   7.496  0.00  0.00    +0.000 A 
ENDBRANCH  10  11
ENDBRANCH   9  10
ENDBRANCH   7   9
ENDBRANCH   1   7
BRANCH   4  17
ATOM     17  C   UNL     1      47.891   8.176  14.092  0.00  0.00    +0.000 C 
BRANCH  17  18
ATOM     18  N   UNL     1      48.854   7.282  14.685  0.00  0.00    +0.000 N 
ATOM     19  C   UNL     1      49.138   7.372  16.030  0.00  0.00    +0.000 C 
ATOM     20  O   UNL     1      48.652   8.234  16.751  0.00  0.00    +0.000 OA
ATOM     21  H   UNL     1      49.150   6.468  14.166  0.00  0.00    +0.000 HD
BRANCH  19  22
ATOM     22  C   UNL     1      50.081   6.374  16.525  0.00  0.00    +0.000 A 
ATOM     23  C   UNL     1      51.422   6.624  16.801  0.00  0.00    +0.000 A 
ATOM     24  N   UNL     1      51.970   5.495  17.346  0.00  0.00    +0.000 N 
ATOM     25  C   UNL     1      53.330   5.365  17.820  0.00  0.00    +0.000 C 
ATOM     26  C   UNL     1      51.031   4.503  17.401  0.00  0.00    +0.000 A 
ATOM     27  N   UNL     1      51.252   3.265  17.876  0.00  0.00    +0.000 NA
ATOM     28  C   UNL     1      50.162   2.487  17.800  0.00  0.00    +0.000 A 
ATOM     29  N   UNL     1      48.958   2.811  17.312  0.00  0.00    +0.000 NA
ATOM     30  C   UNL     1      48.803   4.069  16.863  0.00  0.00    +0.000 A 
ATOM     31 CL   UNL     1      47.311   4.433  16.146  0.00  0.00    +0.000 Cl
ATOM     32  C   UNL     1      49.837   5.001  16.885  0.00  0.00    +0.000 A 
ENDBRANCH  19  22
ENDBRANCH  17  18
ENDBRANCH   4  17
TORSDOF 7
ENDMDL
MODEL 4
REMARK VINA RESULT:    -7.562      2.579      3.153
REMARK INTER + INTRA:         -11.926
REMARK INTER:                 -11.159
REMARK INTRA:                  -0.767
REMARK UNBOUND:                -1.270
REMARK  Name = 
REMARK  9 active torsions:
REMARK  status: ('A' for Active; 'I' for Inactive)
REMARK    1  A    between atoms: C_1  and  N_2
REMARK    2  A    between atoms: N_2  and  C_3
REMARK    3  A    between atoms: N_2  and  C_10
REMARK    4  A    between atoms: C_3  and  C_4
REMARK    5  A    between atoms: C_10  and  C_11
REMARK    6  A    between atoms: C_14  and  C_15
REMARK    7  A    between atoms: C_15  and  N_16
REMARK    8  A    between atoms: C_17  and  C_19
REMARK    9  A    between atoms: N_21  and  C_22
REMARK                            x       y       z     vdW  Elec       q    Type
REMARK                         _______ _______ _______ _____ _____    ______ ____
ROOT
ATOM      1  C   UNL     1      45.513   5.595  11.866  0.00  0.00    +0.000 A 
ATOM      2  C   UNL     1      46.057   6.881  11.740  0.00  0.00    +0.000 A 
ATOM      3  C   UNL     1      47.072   7.312  12.600  0.00  0.00    +0.000 A 
ATOM      4  C   UNL     1      47.567   6.465  13.600  0.00  0.00    +0.000 A 
ATOM      5  C   UNL     1      47.007   5.189  13.742  0.00  0.00    +0.000 A 
ATOM      6  C   UNL     1      45.995   4.756  12.881  0.00  0.00    +0.000 A 
ENDROOT
BRANCH   1   7
ATOM      7  C   UNL     1      44.407   5.123  10.938  0.00  0.00    +0.000 C 
BRANCH   7   9
ATOM      8  C   UNL     1      43.594   2.845  11.083  0.00  0.00    +0.000 C 
ATOM      9  N   UNL     1      44.575   3.737  10.451  0.00  0.00    +0.000 NA
BRANCH   9  10
ATOM     10  C   UNL     1      44.403   3.671   8.984  0.00  0.00    +0.000 C 
BRANCH  10  11
ATOM     11  C   UNL     1      45.526   2.964   8.252  0.00  0.00    +0.000 A 
ATOM     12  C   UNL     1      46.363   3.666   7.371  0.00  0.00    +0.000 A 
ATOM     13  C   UNL     1      47.393   3.008   6.696  0.00  0.00    +0.000 A 
ATOM     14  C   UNL     1      47.601   1.645   6.896  0.00  0.00    +0.000 A 
ATOM     15  C   UNL     1      46.787   0.939   7.778  0.00  0.00    +0.000 A 
ATOM     16  C   UNL     1      45.756   1.595   8.455  0.00  0.00    +0.000 A 
ENDBRANCH  10  11
ENDBRANCH   9  10
ENDBRANCH   7   9
ENDBRANCH   1   7
BRANCH   4  17
ATOM     17  C   UNL     1      48.678   6.916  14.510  0.00  0.00    +0.000 C 
BRANCH  17  18
ATOM     18  N   UNL     1      48.385   6.647  15.896  0.00  0.00    +0.000 N 
ATOM     19  C   UNL     1      49.142   7.235  16.886  0.00  0.00    +0.000 C 
ATOM     20  O   UNL     1      50.113   7.939  16.642  0.00  0.00    +0.000 OA
ATOM     21  H   UNL     1      47.508   6.207  16.134  0.00  0.00    +0.000 HD
BRANCH  19  22
ATOM     22  C   UNL     1      48.710   6.934  18.247  0.00  0.00    +0.000 A 
ATOM     23  C   UNL     1      48.867   5.700  18.870  0.00  0.00    +0.000 A 
ATOM     24  N   UNL     1      48.449   5.814  20.168  0.00  0.00    +0.000 N 
ATOM     25  C   UNL     1      48.502   4.768  21.164  0.00  0.00    +0.000 C 
ATOM     26  C   UNL     1      47.990   7.081  20.399  0.00  0.00    +0.000 A 
ATOM     27  N   UNL     1      47.501   7.517  21.573  0.00  0.00    +0.000 NA
ATOM     28  C   UNL     1      47.108   8.798  21.518  0.00  0.00    +0.000 A 
ATOM     29  N   UNL     1      47.147   9.622  20.463  0.00  0.00    +0.000 NA
ATOM     30  C   UNL     1      47.658   9.124  19.323  0.00  0.00    +0.000 A 
ATOM     31 CL   UNL     1      47.598  10.140  17.967  0.00  0.00    +0.000 Cl
ATOM     32  C   UNL     1      48.120   7.815  19.222  0.00  0.00    +0.000 A 
ENDBRANCH  19  22
ENDBRANCH  17  18
ENDBRANCH   4  17
TORSDOF 7
ENDMDL
MODEL 5
REMARK VINA RESULT:    -7.107      2.511      3.265
REMARK INTER + INTRA:         -11.285
REMARK INTER:                 -10.377
REMARK INTRA:                  -0.908
REMARK UNBOUND:                -1.270
REMARK  Name = 
REMARK  9 active torsions:
REMARK  status: ('A' for Active; 'I' for Inactive)
REMARK    1  A    between atoms: C_1  and  N_2
REMARK    2  A    between atoms: N_2  and  C_3
REMARK    3  A    between atoms: N_2  and  C_10
REMARK    4  A    between atoms: C_3  and  C_4
REMARK    5  A    between atoms: C_10  and  C_11
REMARK    6  A    between atoms: C_14  and  C_15
REMARK    7  A    between atoms: C_15  and  N_16
REMARK    8  A    between atoms: C_17  and  C_19
REMARK    9  A    between atoms: N_21  and  C_22
REMARK                            x       y       z     vdW  Elec       q    Type
REMARK                         _______ _______ _______ _____ _____    ______ ____
ROOT
ATOM      1  C   UNL     1      46.100   5.181  12.049  0.00  0.00    +0.000 A 
ATOM      2  C   UNL     1      46.625   6.242  12.801  0.00  0.00    +0.000 A 
ATOM      3  C   UNL     1      47.123   6.024  14.089  0.00  0.00    +0.000 A 
ATOM      4  C   UNL     1      47.111   4.740  14.651  0.00  0.00    +0.000 A 
ATOM      5  C   UNL     1      46.564   3.685  13.910  0.00  0.00    +0.000 A 
ATOM      6  C   UNL     1      46.069   3.901  12.621  0.00  0.00    +0.000 A 
ENDROOT
BRANCH   1   7
ATOM      7  C   UNL     1      45.553   5.414  10.651  0.00  0.00    +0.000 C 
BRANCH   7   9
ATOM      8  C   UNL     1      43.231   4.720  10.671  0.00  0.00    +0.000 C 
ATOM      9  N   UNL     1      44.584   4.391  10.203  0.00  0.00    +0.000 NA
BRANCH   9  10
ATOM     10  C   UNL     1      44.567   4.294   8.728  0.00  0.00    +0.000 C 
BRANCH  10  11
ATOM     11  C   UNL     1      45.541   3.285   8.153  0.00  0.00    +0.000 A 
ATOM     12  C   UNL     1      45.518   1.946   8.571  0.00  0.00    +0.000 A 
ATOM     13  C   UNL     1      46.421   1.022   8.041  0.00  0.00    +0.000 A 
ATOM     14  C   UNL     1      47.352   1.425   7.086  0.00  0.00    +0.000 A 
ATOM     15  C   UNL     1      47.377   2.747   6.652  0.00  0.00    +0.000 A 
ATOM     16  C   UNL     1      46.474   3.673   7.180  0.00  0.00    +0.000 A 
ENDBRANCH  10  11
ENDBRANCH   9  10
ENDBRANCH   7   9
ENDBRANCH   1   7
BRANCH   4  17
ATOM     17  C   UNL     1      47.671   4.497  16.026  0.00  0.00    +0.000 C 
BRANCH  17  18
ATOM     18  N   UNL     1      47.943   5.729  16.725  0.00  0.00    +0.000 N 
ATOM     19  C   UNL     1      49.244   6.090  17.000  0.00  0.00    +0.000 C 
ATOM     20  O   UNL     1      50.199   5.372  16.733  0.00  0.00    +0.000 OA
ATOM     21  H   UNL     1      47.206   6.412  16.817  0.00  0.00    +0.000 HD
BRANCH  19  22
ATOM     22  C   UNL     1      49.394   7.385  17.655  0.00  0.00    +0.000 A 
ATOM     23  C   UNL     1      50.114   8.456  17.132  0.00  0.00    +0.000 A 
ATOM     24  N   UNL     1      49.949   9.534  17.959  0.00  0.00    +0.000 N 
ATOM     25  C   UNL     1      50.492  10.855  17.736  0.00  0.00    +0.000 C 
ATOM     26  C   UNL     1      49.168   9.186  19.025  0.00  0.00    +0.000 A 
ATOM     27  N   UNL     1      48.823  10.016  20.025  0.00  0.00    +0.000 NA
ATOM     28  C   UNL     1      48.062   9.412  20.951  0.00  0.00    +0.000 A 
ATOM     29  N   UNL     1      47.656   8.136  20.970  0.00  0.00    +0.000 NA
ATOM     30  C   UNL     1      48.028   7.364  19.934  0.00  0.00    +0.000 A 
ATOM     31 CL   UNL     1      47.602   5.726  20.026  0.00  0.00    +0.000 Cl
ATOM     32  C   UNL     1      48.808   7.847  18.887  0.00  0.00    +0.000 A 
ENDBRANCH  19  22
ENDBRANCH  17  18
ENDBRANCH   4  17
TORSDOF 7
ENDMDL
MODEL 6
REMARK VINA RESULT:    -7.023      2.335      3.562
REMARK INTER + INTRA:         -11.167
REMARK INTER:                 -10.038
REMARK INTRA:                  -1.128
REMARK UNBOUND:                -1.270
REMARK  Name = 
REMARK  9 active torsions:
REMARK  status: ('A' for Active; 'I' for Inactive)
REMARK    1  A    between atoms: C_1  and  N_2
REMARK    2  A    between atoms: N_2  and  C_3
REMARK    3  A    between atoms: N_2  and  C_10
REMARK    4  A    between atoms: C_3  and  C_4
REMARK    5  A    between atoms: C_10  and  C_11
REMARK    6  A    between atoms: C_14  and  C_15
REMARK    7  A    between atoms: C_15  and  N_16
REMARK    8  A    between atoms: C_17  and  C_19
REMARK    9  A    between atoms: N_21  and  C_22
REMARK                            x       y       z     vdW  Elec       q    Type
REMARK                         _______ _______ _______ _____ _____    ______ ____
ROOT
ATOM      1  C   UNL     1      46.117   5.057  12.073  0.00  0.00    +0.000 A 
ATOM      2  C   UNL     1      46.603   6.100  12.874  0.00  0.00    +0.000 A 
ATOM      3  C   UNL     1      47.064   5.848  14.170  0.00  0.00    +0.000 A 
ATOM      4  C   UNL     1      47.053   4.547  14.690  0.00  0.00    +0.000 A 
ATOM      5  C   UNL     1      46.544   3.508  13.900  0.00  0.00    +0.000 A 
ATOM      6  C   UNL     1      46.086   3.759  12.603  0.00  0.00    +0.000 A 
ENDROOT
BRANCH   1   7
ATOM      7  C   UNL     1      45.610   5.327  10.667  0.00  0.00    +0.000 C 
BRANCH   7   9
ATOM      8  C   UNL     1      43.236   4.835  10.674  0.00  0.00    +0.000 C 
ATOM      9  N   UNL     1      44.559   4.391  10.213  0.00  0.00    +0.000 NA
BRANCH   9  10
ATOM     10  C   UNL     1      44.542   4.295   8.738  0.00  0.00    +0.000 C 
BRANCH  10  11
ATOM     11  C   UNL     1      45.522   3.293   8.162  0.00  0.00    +0.000 A 
ATOM     12  C   UNL     1      45.518   1.957   8.589  0.00  0.00    +0.000 A 
ATOM     13  C   UNL     1      46.426   1.040   8.057  0.00  0.00    +0.000 A 
ATOM     14  C   UNL     1      47.345   1.446   7.091  0.00  0.00    +0.000 A 
ATOM     15  C   UNL     1      47.351   2.766   6.648  0.00  0.00    +0.000 A 
ATOM     16  C   UNL     1      46.442   3.685   7.178  0.00  0.00    +0.000 A 
ENDBRANCH  10  11
ENDBRANCH   9  10
ENDBRANCH   7   9
ENDBRANCH   1   7
BRANCH   4  17
ATOM     17  C   UNL     1      47.574   4.267  16.074  0.00  0.00    +0.000 C 
BRANCH  17  18
ATOM     18  N   UNL     1      47.872   5.481  16.795  0.00  0.00    +0.000 N 
ATOM     19  C   UNL     1      49.182   5.845  17.014  0.00  0.00    +0.000 C 
ATOM     20  O   UNL     1      50.127   5.144  16.677  0.00  0.00    +0.000 OA
ATOM     21  H   UNL     1      47.135   6.154  16.945  0.00  0.00    +0.000 HD
BRANCH  19  22
ATOM     22  C   UNL     1      49.356   7.122  17.699  0.00  0.00    +0.000 A 
ATOM     23  C   UNL     1      48.945   7.380  19.004  0.00  0.00    +0.000 A 
ATOM     24  N   UNL     1      49.364   8.635  19.350  0.00  0.00    +0.000 N 
ATOM     25  C   UNL     1      49.182   9.257  20.642  0.00  0.00    +0.000 C 
ATOM     26  C   UNL     1      50.009   9.217  18.294  0.00  0.00    +0.000 A 
ATOM     27  N   UNL     1      50.536  10.454  18.305  0.00  0.00    +0.000 NA
ATOM     28  C   UNL     1      51.098  10.781  17.133  0.00  0.00    +0.000 A 
ATOM     29  N   UNL     1      51.165  10.035  16.021  0.00  0.00    +0.000 NA
ATOM     30  C   UNL     1      50.627   8.805  16.083  0.00  0.00    +0.000 A 
ATOM     31 CL   UNL     1      50.618   7.916  14.639  0.00  0.00    +0.000 Cl
ATOM     32  C   UNL     1      50.017   8.314  17.234  0.00  0.00    +0.000 A 
ENDBRANCH  19  22
ENDBRANCH  17  18
ENDBRANCH   4  17
TORSDOF 7
ENDMDL
MODEL 7
REMARK VINA RESULT:    -6.881      3.526      9.835
REMARK INTER + INTRA:         -10.967
REMARK INTER:                  -8.884
REMARK INTRA:                  -2.083
REMARK UNBOUND:                -1.270
REMARK  Name = 
REMARK  9 active torsions:
REMARK  status: ('A' for Active; 'I' for Inactive)
REMARK    1  A    between atoms: C_1  and  N_2
REMARK    2  A    between atoms: N_2  and  C_3
REMARK    3  A    between atoms: N_2  and  C_10
REMARK    4  A    between atoms: C_3  and  C_4
REMARK    5  A    between atoms: C_10  and  C_11
REMARK    6  A    between atoms: C_14  and  C_15
REMARK    7  A    between atoms: C_15  and  N_16
REMARK    8  A    between atoms: C_17  and  C_19
REMARK    9  A    between atoms: N_21  and  C_22
REMARK                            x       y       z     vdW  Elec       q    Type
REMARK                         _______ _______ _______ _____ _____    ______ ____
ROOT
ATOM      1  C   UNL     1      50.845   5.681  17.990  0.00  0.00    +0.000 A 
ATOM      2  C   UNL     1      50.770   4.288  18.128  0.00  0.00    +0.000 A 
ATOM      3  C   UNL     1      49.646   3.587  17.681  0.00  0.00    +0.000 A 
ATOM      4  C   UNL     1      48.576   4.263  17.081  0.00  0.00    +0.000 A 
ATOM      5  C   UNL     1      48.639   5.658  16.965  0.00  0.00    +0.000 A 
ATOM      6  C   UNL     1      49.764   6.359  17.410  0.00  0.00    +0.000 A 
ENDROOT
BRANCH   1   7
ATOM      7  C   UNL     1      52.062   6.447  18.479  0.00  0.00    +0.000 C 
BRANCH   7   9
ATOM      8  C   UNL     1      53.827   6.441  20.140  0.00  0.00    +0.000 C 
ATOM      9  N   UNL     1      52.397   6.208  19.899  0.00  0.00    +0.000 NA
BRANCH   9  10
ATOM     10  C   UNL     1      51.614   7.098  20.782  0.00  0.00    +0.000 C 
BRANCH  10  11
ATOM     11  C   UNL     1      50.180   6.662  21.002  0.00  0.00    +0.000 A 
ATOM     12  C   UNL     1      49.885   5.374  21.474  0.00  0.00    +0.000 A 
ATOM     13  C   UNL     1      48.561   4.977  21.671  0.00  0.00    +0.000 A 
ATOM     14  C   UNL     1      47.519   5.862  21.403  0.00  0.00    +0.000 A 
ATOM     15  C   UNL     1      47.798   7.148  20.947  0.00  0.00    +0.000 A 
ATOM     16  C   UNL     1      49.121   7.548  20.751  0.00  0.00    +0.000 A 
ENDBRANCH  10  11
ENDBRANCH   9  10
ENDBRANCH   7   9
ENDBRANCH   1   7
BRANCH   4  17
ATOM     17  C   UNL     1      47.376   3.510  16.574  0.00  0.00    +0.000 C 
BRANCH  17  18
ATOM     18  N   UNL     1      46.597   4.294  15.647  0.00  0.00    +0.000 N 
ATOM     19  C   UNL     1      46.637   4.005  14.300  0.00  0.00    +0.000 C 
ATOM     20  O   UNL     1      47.366   3.139  13.833  0.00  0.00    +0.000 OA
ATOM     21  H   UNL     1      45.875   4.900  16.006  0.00  0.00    +0.000 HD
BRANCH  19  22
ATOM     22  C   UNL     1      45.761   4.827  13.472  0.00  0.00    +0.000 A 
ATOM     23  C   UNL     1      44.490   4.448  13.049  0.00  0.00    +0.000 A 
ATOM     24  N   UNL     1      43.922   5.502  12.387  0.00  0.00    +0.000 N 
ATOM     25  C   UNL     1      42.584   5.529  11.840  0.00  0.00    +0.000 C 
ATOM     26  C   UNL     1      44.802   6.547  12.336  0.00  0.00    +0.000 A 
ATOM     27  N   UNL     1      44.553   7.730  11.746  0.00  0.00    +0.000 NA
ATOM     28  C   UNL     1      45.594   8.571  11.830  0.00  0.00    +0.000 A 
ATOM     29  N   UNL     1      46.785   8.345  12.400  0.00  0.00    +0.000 NA
ATOM     30  C   UNL     1      46.963   7.146  12.980  0.00  0.00    +0.000 A 
ATOM     31 CL   UNL     1      48.510   6.832  13.599  0.00  0.00    +0.000 Cl
ATOM     32  C   UNL     1      45.972   6.167  12.989  0.00  0.00    +0.000 A 
ENDBRANCH  19  22
ENDBRANCH  17  18
ENDBRANCH   4  17
TORSDOF 7
ENDMDL
MODEL 8
REMARK VINA RESULT:    -6.847      3.254      5.558
REMARK INTER + INTRA:         -10.919
REMARK INTER:                  -9.803
REMARK INTRA:                  -1.116
REMARK UNBOUND:                -1.270
REMARK  Name = 
REMARK  9 active torsions:
REMARK  status: ('A' for Active; 'I' for Inactive)
REMARK    1  A    between atoms: C_1  and  N_2
REMARK    2  A    between atoms: N_2  and  C_3
REMARK    3  A    between atoms: N_2  and  C_10
REMARK    4  A    between atoms: C_3  and  C_4
REMARK    5  A    between atoms: C_10  and  C_11
REMARK    6  A    between atoms: C_14  and  C_15
REMARK    7  A    between atoms: C_15  and  N_16
REMARK    8  A    between atoms: C_17  and  C_19
REMARK    9  A    between atoms: N_21  and  C_22
REMARK                            x       y       z     vdW  Elec       q    Type
REMARK                         _______ _______ _______ _____ _____    ______ ____
ROOT
ATOM      1  C   UNL     1      47.513   5.742  13.934  0.00  0.00    +0.000 A 
ATOM      2  C   UNL     1      48.070   6.195  15.137  0.00  0.00    +0.000 A 
ATOM      3  C   UNL     1      48.137   5.354  16.253  0.00  0.00    +0.000 A 
ATOM      4  C   UNL     1      47.652   4.042  16.186  0.00  0.00    +0.000 A 
ATOM      5  C   UNL     1      47.072   3.596  14.991  0.00  0.00    +0.000 A 
ATOM      6  C   UNL     1      47.008   4.435  13.875  0.00  0.00    +0.000 A 
ENDROOT
BRANCH   1   7
ATOM      7  C   UNL     1      47.433   6.653  12.721  0.00  0.00    +0.000 C 
BRANCH   7   9
ATOM      8  C   UNL     1      46.573   8.914  12.569  0.00  0.00    +0.000 C 
ATOM      9  N   UNL     1      46.217   7.492  12.673  0.00  0.00    +0.000 NA
BRANCH   9  10
ATOM     10  C   UNL     1      45.371   7.127  11.517  0.00  0.00    +0.000 C 
BRANCH  10  11
ATOM     11  C   UNL     1      44.700   5.773  11.632  0.00  0.00    +0.000 A 
ATOM     12  C   UNL     1      44.961   4.760  10.698  0.00  0.00    +0.000 A 
ATOM     13  C   UNL     1      44.337   3.516  10.807  0.00  0.00    +0.000 A 
ATOM     14  C   UNL     1      43.449   3.270  11.852  0.00  0.00    +0.000 A 
ATOM     15  C   UNL     1      43.191   4.261  12.795  0.00  0.00    +0.000 A 
ATOM     16  C   UNL     1      43.816   5.506  12.688  0.00  0.00    +0.000 A 
ENDBRANCH  10  11
ENDBRANCH   9  10
ENDBRANCH   7   9
ENDBRANCH   1   7
BRANCH   4  17
ATOM     17  C   UNL     1      47.747   3.125  17.377  0.00  0.00    +0.000 C 
BRANCH  17  18
ATOM     18  N   UNL     1      49.113   2.905  17.782  0.00  0.00    +0.000 N 
ATOM     19  C   UNL     1      49.958   2.169  16.980  0.00  0.00    +0.000 C 
ATOM     20  O   UNL     1      49.582   1.626  15.950  0.00  0.00    +0.000 OA
ATOM     21  H   UNL     1      49.497   3.462  18.532  0.00  0.00    +0.000 HD
BRANCH  19  22
ATOM     22  C   UNL     1      51.330   2.068  17.466  0.00  0.00    +0.000 A 
ATOM     23  C   UNL     1      51.983   0.871  17.744  0.00  0.00    +0.000 A 
ATOM     24  N   UNL     1      53.281   1.152  18.072  0.00  0.00    +0.000 N 
ATOM     25  C   UNL     1      54.303   0.175  18.375  0.00  0.00    +0.000 C 
ATOM     26  C   UNL     1      53.484   2.504  18.050  0.00  0.00    +0.000 A 
ATOM     27  N   UNL     1      54.651   3.108  18.334  0.00  0.00    +0.000 NA
ATOM     28  C   UNL     1      54.568   4.444  18.250  0.00  0.00    +0.000 A 
ATOM     29  N   UNL     1      53.492   5.179  17.941  0.00  0.00    +0.000 NA
ATOM     30  C   UNL     1      52.360   4.510  17.659  0.00  0.00    +0.000 A 
ATOM     31 CL   UNL     1      50.979   5.453  17.380  0.00  0.00    +0.000 Cl
ATOM     32  C   UNL     1      52.288   3.120  17.690  0.00  0.00    +0.000 A 
ENDBRANCH  19  22
ENDBRANCH  17  18
ENDBRANCH   4  17
TORSDOF 7
ENDMDL
MODEL 9
REMARK VINA RESULT:    -6.665      3.623      9.273
REMARK INTER + INTRA:         -10.662
REMARK INTER:                  -8.510
REMARK INTRA:                  -2.152
REMARK UNBOUND:                -1.270
REMARK  Name = 
REMARK  9 active torsions:
REMARK  status: ('A' for Active; 'I' for Inactive)
REMARK    1  A    between atoms: C_1  and  N_2
REMARK    2  A    between atoms: N_2  and  C_3
REMARK    3  A    between atoms: N_2  and  C_10
REMARK    4  A    between atoms: C_3  and  C_4
REMARK    5  A    between atoms: C_10  and  C_11
REMARK    6  A    between atoms: C_14  and  C_15
REMARK    7  A    between atoms: C_15  and  N_16
REMARK    8  A    between atoms: C_17  and  C_19
REMARK    9  A    between atoms: N_21  and  C_22
REMARK                            x       y       z     vdW  Elec       q    Type
REMARK                         _______ _______ _______ _____ _____    ______ ____
ROOT
ATOM      1  C   UNL     1      49.085   5.760  19.849  0.00  0.00    +0.000 A 
ATOM      2  C   UNL     1      47.738   5.816  19.464  0.00  0.00    +0.000 A 
ATOM      3  C   UNL     1      47.284   5.101  18.352  0.00  0.00    +0.000 A 
ATOM      4  C   UNL     1      48.167   4.312  17.603  0.00  0.00    +0.000 A 
ATOM      5  C   UNL     1      49.518   4.275  17.972  0.00  0.00    +0.000 A 
ATOM      6  C   UNL     1      49.972   4.987  19.086  0.00  0.00    +0.000 A 
ENDROOT
BRANCH   1   7
ATOM      7  C   UNL     1      49.584   6.539  21.053  0.00  0.00    +0.000 C 
BRANCH   7   9
ATOM      8  C   UNL     1      49.594   8.639  22.264  0.00  0.00    +0.000 C 
ATOM      9  N   UNL     1      49.373   7.999  20.960  0.00  0.00    +0.000 NA
BRANCH   9  10
ATOM     10  C   UNL     1      50.294   8.601  19.972  0.00  0.00    +0.000 C 
BRANCH  10  11
ATOM     11  C   UNL     1      49.692   8.811  18.598  0.00  0.00    +0.000 A 
ATOM     12  C   UNL     1      48.416   9.376  18.451  0.00  0.00    +0.000 A 
ATOM     13  C   UNL     1      47.865   9.564  17.182  0.00  0.00    +0.000 A 
ATOM     14  C   UNL     1      48.583   9.192  16.047  0.00  0.00    +0.000 A 
ATOM     15  C   UNL     1      49.856   8.644  16.177  0.00  0.00    +0.000 A 
ATOM     16  C   UNL     1      50.409   8.457  17.446  0.00  0.00    +0.000 A 
ENDBRANCH  10  11
ENDBRANCH   9  10
ENDBRANCH   7   9
ENDBRANCH   1   7
BRANCH   4  17
ATOM     17  C   UNL     1      47.677   3.519  16.421  0.00  0.00    +0.000 C 
BRANCH  17  18
ATOM     18  N   UNL     1      46.820   4.301  15.564  0.00  0.00    +0.000 N 
ATOM     19  C   UNL     1      46.841   4.097  14.201  0.00  0.00    +0.000 C 
ATOM     20  O   UNL     1      47.613   3.314  13.663  0.00  0.00    +0.000 OA
ATOM     21  H   UNL     1      46.069   4.833  15.977  0.00  0.00    +0.000 HD
BRANCH  19  22
ATOM     22  C   UNL     1      45.887   4.904  13.447  0.00  0.00    +0.000 A 
ATOM     23  C   UNL     1      44.584   4.516  13.152  0.00  0.00    +0.000 A 
ATOM     24  N   UNL     1      43.951   5.557  12.531  0.00  0.00    +0.000 N 
ATOM     25  C   UNL     1      42.568   5.573  12.112  0.00  0.00    +0.000 C 
ATOM     26  C   UNL     1      44.818   6.604  12.381  0.00  0.00    +0.000 A 
ATOM     27  N   UNL     1      44.510   7.777  11.800  0.00  0.00    +0.000 NA
ATOM     28  C   UNL     1      45.550   8.623  11.773  0.00  0.00    +0.000 A 
ATOM     29  N   UNL     1      46.791   8.409  12.232  0.00  0.00    +0.000 NA
ATOM     30  C   UNL     1      47.027   7.218  12.810  0.00  0.00    +0.000 A 
ATOM     31 CL   UNL     1      48.627   6.918  13.284  0.00  0.00    +0.000 Cl
ATOM     32  C   UNL     1      46.046   6.237  12.926  0.00  0.00    +0.000 A 
ENDBRANCH  19  22
ENDBRANCH  17  18
ENDBRANCH   4  17
TORSDOF 7
ENDMDL
