MODEL 1
REMARK VINA RESULT:    -7.585      0.000      0.000
REMARK INTER + INTRA:         -10.482
REMARK INTER:                 -10.245
REMARK INTRA:                  -0.237
REMARK UNBOUND:                -0.237
REMARK  Name = 
REMARK  7 active torsions:
REMARK  status: ('A' for Active; 'I' for Inactive)
REMARK    1  A    between atoms: C_1  and  O_2
REMARK    2  A    between atoms: O_2  and  C_3
REMARK    3  A    between atoms: C_5  and  C_6
REMARK    4  A    between atoms: C_11  and  C_12
REMARK    5  A    between atoms: C_12  and  C_13
REMARK    6  A    between atoms: C_13  and  C_14
REMARK    7  A    between atoms: C_19  and  C_20
REMARK                            x       y       z     vdW  Elec       q    Type
REMARK                         _______ _______ _______ _____ _____    ______ ____
ROOT
ATOM      1  C   UNL     1      44.443   6.248  10.681  0.00  0.00    +0.000 C 
ENDROOT
BRANCH   1   2
ATOM      2  C   UNL     1      45.381   5.929  11.825  0.00  0.00    +0.000 A 
ATOM      3  C   UNL     1      44.969   5.179  12.927  0.00  0.00    +0.000 A 
ATOM      4  C   UNL     1      45.871   4.908  13.954  0.00  0.00    +0.000 A 
ATOM      5  C   UNL     1      47.173   5.410  13.898  0.00  0.00    +0.000 A 
ATOM      6  F   UNL     1      47.982   5.157  14.937  0.00  0.00    +0.000 F 
ATOM      7  C   UNL     1      47.618   6.192  12.822  0.00  0.00    +0.000 A 
ATOM      8  C   UNL     1      46.693   6.431  11.792  0.00  0.00    +0.000 A 
BRANCH   7   9
ATOM      9  C   UNL     1      49.006   6.836  12.838  0.00  0.00    +0.000 C 
ATOM     10  C   UNL     1      49.364   7.634  14.116  0.00  0.00    +0.000 C 
ATOM     11  C   UNL     1      48.670   9.000  14.158  0.00  0.00    +0.000 C 
ATOM     12  C   UNL     1      48.850   9.786  12.861  0.00  0.00    +0.000 C 
ATOM     13  N   UNL     1      48.540   8.999  11.671  0.00  0.00    +0.000 NA
ATOM     14  C   UNL     1      49.309   7.751  11.630  0.00  0.00    +0.000 C 
ATOM     15  H   UNL     1      48.752   9.548  10.837  0.00  0.00    +0.000 HD
ENDBRANCH   7   9
ENDBRANCH   1   2
BRANCH   1  16
ATOM     16  C   UNL     1      43.700   5.004  10.189  0.00  0.00    +0.000 C 
BRANCH  16  22
ATOM     17  C   UNL     1      44.530   2.671   9.575  0.00  0.00    +0.000 A 
ATOM     18  C   UNL     1      45.394   1.887   8.803  0.00  0.00    +0.000 A 
ATOM     19  C   UNL     1      46.318   2.482   7.943  0.00  0.00    +0.000 A 
ATOM     20  C   UNL     1      46.343   3.864   7.895  0.00  0.00    +0.000 A 
ATOM     21  N   UNL     1      45.512   4.662   8.609  0.00  0.00    +0.000 NA
ATOM     22  C   UNL     1      44.607   4.064   9.429  0.00  0.00    +0.000 A 
BRANCH  19  23
ATOM     23  C   UNL     1      47.216   1.609   7.152  0.00  0.00    +0.000 C 
ATOM     24  N   UNL     1      48.320   2.152   6.556  0.00  0.00    +0.000 N 
ATOM     25  O   UNL     1      46.986   0.409   7.024  0.00  0.00    +0.000 OA
ATOM     26  H   UNL     1      48.594   3.121   6.580  0.00  0.00    +0.000 HD
ATOM     27  H   UNL     1      48.901   1.518   6.018  0.00  0.00    +0.000 HD
ENDBRANCH  19  23
BRANCH  17  29
ATOM     28  C   UNL     1      43.895   2.336  11.830  0.00  0.00    +0.000 C 
ATOM     29  O   UNL     1      43.603   2.160  10.445  0.00  0.00    +0.000 OA
ENDBRANCH  17  29
ENDBRANCH  16  22
ENDBRANCH   1  16
TORSDOF 6
ENDMDL
MODEL 2
REMARK VINA RESULT:    -7.278      1.919      2.539
REMARK INTER + INTRA:         -10.067
REMARK INTER:                  -9.514
REMARK INTRA:                  -0.554
REMARK UNBOUND:                -0.237
REMARK  Name = 
REMARK  7 active torsions:
REMARK  status: ('A' for Active; 'I' for Inactive)
REMARK    1  A    between atoms: C_1  and  O_2
REMARK    2  A    between atoms: O_2  and  C_3
REMARK    3  A    between atoms: C_5  and  C_6
REMARK    4  A    between atoms: C_11  and  C_12
REMARK    5  A    between atoms: C_12  and  C_13
REMARK    6  A    between atoms: C_13  and  C_14
REMARK    7  A    between atoms: C_19  and  C_20
REMARK                            x       y       z     vdW  Elec       q    Type
REMARK                         _______ _______ _______ _____ _____    ______ ____
ROOT
ATOM      1  C   UNL     1      44.430   5.846  11.989  0.00  0.00    +0.000 C 
ENDROOT
BRANCH   1   2
ATOM      2  C   UNL     1      45.025   7.236  12.048  0.00  0.00    +0.000 A 
ATOM      3  C   UNL     1      44.423   8.322  11.412  0.00  0.00    +0.000 A 
ATOM      4  C   UNL     1      45.008   9.584  11.499  0.00  0.00    +0.000 A 
ATOM      5  C   UNL     1      46.207   9.757  12.193  0.00  0.00    +0.000 A 
ATOM      6  F   UNL     1      46.748  10.985  12.203  0.00  0.00    +0.000 F 
ATOM      7  C   UNL     1      46.860   8.686  12.821  0.00  0.00    +0.000 A 
ATOM      8  C   UNL     1      46.236   7.431  12.734  0.00  0.00    +0.000 A 
BRANCH   7   9
ATOM      9  C   UNL     1      48.234   8.873  13.469  0.00  0.00    +0.000 C 
ATOM     10  C   UNL     1      49.259   9.695  12.650  0.00  0.00    +0.000 C 
ATOM     11  C   UNL     1      49.853   8.890  11.489  0.00  0.00    +0.000 C 
ATOM     12  C   UNL     1      50.365   7.521  11.932  0.00  0.00    +0.000 C 
ATOM     13  N   UNL     1      49.393   6.781  12.732  0.00  0.00    +0.000 NA
ATOM     14  C   UNL     1      48.935   7.560  13.887  0.00  0.00    +0.000 C 
ATOM     15  H   UNL     1      49.815   5.914  13.063  0.00  0.00    +0.000 HD
ENDBRANCH   7   9
ENDBRANCH   1   2
BRANCH   1  16
ATOM     16  C   UNL     1      43.764   5.568  10.639  0.00  0.00    +0.000 C 
BRANCH  16  22
ATOM     17  C   UNL     1      44.150   3.106  10.088  0.00  0.00    +0.000 A 
ATOM     18  C   UNL     1      44.826   2.159   9.313  0.00  0.00    +0.000 A 
ATOM     19  C   UNL     1      45.794   2.555   8.390  0.00  0.00    +0.000 A 
ATOM     20  C   UNL     1      46.053   3.910   8.281  0.00  0.00    +0.000 A 
ATOM     21  N   UNL     1      45.408   4.863   8.997  0.00  0.00    +0.000 NA
ATOM     22  C   UNL     1      44.457   4.460   9.881  0.00  0.00    +0.000 A 
BRANCH  19  23
ATOM     23  C   UNL     1      46.488   1.513   7.597  0.00  0.00    +0.000 C 
ATOM     24  N   UNL     1      47.093   1.862   6.422  0.00  0.00    +0.000 N 
ATOM     25  O   UNL     1      46.528   0.347   7.978  0.00  0.00    +0.000 OA
ATOM     26  H   UNL     1      47.107   2.780   6.008  0.00  0.00    +0.000 HD
ATOM     27  H   UNL     1      47.549   1.114   5.910  0.00  0.00    +0.000 HD
ENDBRANCH  19  23
BRANCH  17  29
ATOM     28  C   UNL     1      43.683   2.420  12.305  0.00  0.00    +0.000 C 
ATOM     29  O   UNL     1      43.194   2.794  11.018  0.00  0.00    +0.000 OA
ENDBRANCH  17  29
ENDBRANCH  16  22
ENDBRANCH   1  16
TORSDOF 6
ENDMDL
MODEL 3
REMARK VINA RESULT:    -7.272      3.044      3.998
REMARK INTER + INTRA:         -10.061
REMARK INTER:                  -9.349
REMARK INTRA:                  -0.712
REMARK UNBOUND:                -0.237
REMARK  Name = 
REMARK  7 active torsions:
REMARK  status: ('A' for Active; 'I' for Inactive)
REMARK    1  A    between atoms: C_1  and  O_2
REMARK    2  A    between atoms: O_2  and  C_3
REMARK    3  A    between atoms: C_5  and  C_6
REMARK    4  A    between atoms: C_11  and  C_12
REMARK    5  A    between atoms: C_12  and  C_13
REMARK    6  A    between atoms: C_13  and  C_14
REMARK    7  A    between atoms: C_19  and  C_20
REMARK                            x       y       z     vdW  Elec       q    Type
REMARK                         _______ _______ _______ _____ _____    ______ ____
ROOT
ATOM      1  C   UNL     1      44.560   6.027  11.871  0.00  0.00    +0.000 C 
ENDROOT
BRANCH   1   2
ATOM      2  C   UNL     1      45.308   7.342  11.906  0.00  0.00    +0.000 A 
ATOM      3  C   UNL     1      46.654   7.414  12.265  0.00  0.00    +0.000 A 
ATOM      4  C   UNL     1      47.300   8.650  12.278  0.00  0.00    +0.000 A 
ATOM      5  C   UNL     1      46.597   9.814  11.964  0.00  0.00    +0.000 A 
ATOM      6  F   UNL     1      47.258  10.979  12.040  0.00  0.00    +0.000 F 
ATOM      7  C   UNL     1      45.236   9.789  11.626  0.00  0.00    +0.000 A 
ATOM      8  C   UNL     1      44.617   8.528  11.600  0.00  0.00    +0.000 A 
BRANCH   7   9
ATOM      9  C   UNL     1      44.455  11.087  11.407  0.00  0.00    +0.000 C 
ATOM     10  C   UNL     1      42.915  10.973  11.516  0.00  0.00    +0.000 C 
ATOM     11  C   UNL     1      42.292  10.324  10.275  0.00  0.00    +0.000 C 
ATOM     12  C   UNL     1      42.779  10.964   8.977  0.00  0.00    +0.000 C 
ATOM     13  N   UNL     1      44.233  11.092   8.915  0.00  0.00    +0.000 NA
ATOM     14  C   UNL     1      44.764  11.811  10.077  0.00  0.00    +0.000 C 
ATOM     15  H   UNL     1      44.493  11.593   8.066  0.00  0.00    +0.000 HD
ENDBRANCH   7   9
ENDBRANCH   1   2
BRANCH   1  16
ATOM     16  C   UNL     1      43.931   5.766  10.500  0.00  0.00    +0.000 C 
BRANCH  16  22
ATOM     17  C   UNL     1      44.186   3.269  10.040  0.00  0.00    +0.000 A 
ATOM     18  C   UNL     1      44.822   2.259   9.311  0.00  0.00    +0.000 A 
ATOM     19  C   UNL     1      45.829   2.568   8.396  0.00  0.00    +0.000 A 
ATOM     20  C   UNL     1      46.166   3.902   8.248  0.00  0.00    +0.000 A 
ATOM     21  N   UNL     1      45.563   4.914   8.918  0.00  0.00    +0.000 NA
ATOM     22  C   UNL     1      44.574   4.595   9.794  0.00  0.00    +0.000 A 
BRANCH  19  23
ATOM     23  C   UNL     1      46.477   1.462   7.654  0.00  0.00    +0.000 C 
ATOM     24  N   UNL     1      47.144   1.739   6.492  0.00  0.00    +0.000 N 
ATOM     25  O   UNL     1      46.425   0.305   8.063  0.00  0.00    +0.000 OA
ATOM     26  H   UNL     1      47.235   2.643   6.058  0.00  0.00    +0.000 HD
ATOM     27  H   UNL     1      47.566   0.949   6.015  0.00  0.00    +0.000 HD
ENDBRANCH  19  23
BRANCH  17  29
ATOM     28  C   UNL     1      43.626   2.508  12.210  0.00  0.00    +0.000 C 
ATOM     29  O   UNL     1      43.197   3.043  10.960  0.00  0.00    +0.000 OA
ENDBRANCH  17  29
ENDBRANCH  16  22
ENDBRANCH   1  16
TORSDOF 6
ENDMDL
MODEL 4
REMARK VINA RESULT:    -7.198      4.130      7.573
REMARK INTER + INTRA:          -9.961
REMARK INTER:                  -9.304
REMARK INTRA:                  -0.657
REMARK UNBOUND:                -0.237
REMARK  Name = 
REMARK  7 active torsions:
REMARK  status: ('A' for Active; 'I' for Inactive)
REMARK    1  A    between atoms: C_1  and  O_2
REMARK    2  A    between atoms: O_2  and  C_3
REMARK    3  A    between atoms: C_5  and  C_6
REMARK    4  A    between atoms: C_11  and  C_12
REMARK    5  A    between atoms: C_12  and  C_13
REMARK    6  A    between atoms: C_13  and  C_14
REMARK    7  A    between atoms: C_19  and  C_20
REMARK                            x       y       z     vdW  Elec       q    Type
REMARK                         _______ _______ _______ _____ _____    ______ ____
ROOT
ATOM      1  C   UNL     1      48.428   6.760  12.600  0.00  0.00    +0.000 C 
ENDROOT
BRANCH   1   2
ATOM      2  C   UNL     1      47.051   7.220  12.173  0.00  0.00    +0.000 A 
ATOM      3  C   UNL     1      46.644   8.548  12.303  0.00  0.00    +0.000 A 
ATOM      4  C   UNL     1      45.366   8.922  11.891  0.00  0.00    +0.000 A 
ATOM      5  C   UNL     1      44.485   7.968  11.378  0.00  0.00    +0.000 A 
ATOM      6  F   UNL     1      43.253   8.378  11.042  0.00  0.00    +0.000 F 
ATOM      7  C   UNL     1      44.844   6.618  11.257  0.00  0.00    +0.000 A 
ATOM      8  C   UNL     1      46.145   6.274  11.661  0.00  0.00    +0.000 A 
BRANCH   7   9
ATOM      9  C   UNL     1      43.824   5.569  10.810  0.00  0.00    +0.000 C 
ATOM     10  C   UNL     1      42.692   5.257  11.820  0.00  0.00    +0.000 C 
ATOM     11  C   UNL     1      43.174   4.375  12.977  0.00  0.00    +0.000 C 
ATOM     12  C   UNL     1      43.934   3.142  12.492  0.00  0.00    +0.000 C 
ATOM     13  N   UNL     1      44.972   3.460  11.515  0.00  0.00    +0.000 NA
ATOM     14  C   UNL     1      44.434   4.216  10.379  0.00  0.00    +0.000 C 
ATOM     15  H   UNL     1      45.390   2.596  11.171  0.00  0.00    +0.000 HD
ENDBRANCH   7   9
ENDBRANCH   1   2
BRANCH   1  16
ATOM     16  C   UNL     1      48.785   7.261  14.002  0.00  0.00    +0.000 C 
BRANCH  16  22
ATOM     17  C   UNL     1      49.078   6.295  16.346  0.00  0.00    +0.000 A 
ATOM     18  C   UNL     1      48.738   5.298  17.266  0.00  0.00    +0.000 A 
ATOM     19  C   UNL     1      47.892   4.250  16.900  0.00  0.00    +0.000 A 
ATOM     20  C   UNL     1      47.415   4.242  15.601  0.00  0.00    +0.000 A 
ATOM     21  N   UNL     1      47.701   5.198  14.684  0.00  0.00    +0.000 NA
ATOM     22  C   UNL     1      48.514   6.220  15.063  0.00  0.00    +0.000 A 
BRANCH  19  23
ATOM     23  C   UNL     1      47.569   3.214  17.907  0.00  0.00    +0.000 C 
ATOM     24  N   UNL     1      48.338   3.115  19.034  0.00  0.00    +0.000 N 
ATOM     25  O   UNL     1      46.625   2.445  17.748  0.00  0.00    +0.000 OA
ATOM     26  H   UNL     1      49.142   3.679  19.258  0.00  0.00    +0.000 HD
ATOM     27  H   UNL     1      48.083   2.386  19.692  0.00  0.00    +0.000 HD
ENDBRANCH  19  23
BRANCH  17  29
ATOM     28  C   UNL     1      49.834   7.850  17.962  0.00  0.00    +0.000 C 
ATOM     29  O   UNL     1      49.906   7.348  16.629  0.00  0.00    +0.000 OA
ENDBRANCH  17  29
ENDBRANCH  16  22
ENDBRANCH   1  16
TORSDOF 6
ENDMDL
MODEL 5
REMARK VINA RESULT:    -7.097      3.999      6.476
REMARK INTER + INTRA:          -9.823
REMARK INTER:                  -8.912
REMARK INTRA:                  -0.911
REMARK UNBOUND:                -0.237
REMARK  Name = 
REMARK  7 active torsions:
REMARK  status: ('A' for Active; 'I' for Inactive)
REMARK    1  A    between atoms: C_1  and  O_2
REMARK    2  A    between atoms: O_2  and  C_3
REMARK    3  A    between atoms: C_5  and  C_6
REMARK    4  A    between atoms: C_11  and  C_12
REMARK    5  A    between atoms: C_12  and  C_13
REMARK    6  A    between atoms: C_13  and  C_14
REMARK    7  A    between atoms: C_19  and  C_20
REMARK                            x       y       z     vdW  Elec       q    Type
REMARK                         _______ _______ _______ _____ _____    ______ ____
ROOT
ATOM      1  C   UNL     1      48.979   7.763  14.506  0.00  0.00    +0.000 C 
ENDROOT
BRANCH   1   2
ATOM      2  C   UNL     1      49.885   7.069  15.500  0.00  0.00    +0.000 A 
ATOM      3  C   UNL     1      51.268   7.254  15.489  0.00  0.00    +0.000 A 
ATOM      4  C   UNL     1      52.060   6.595  16.428  0.00  0.00    +0.000 A 
ATOM      5  C   UNL     1      51.477   5.730  17.356  0.00  0.00    +0.000 A 
ATOM      6  F   UNL     1      52.294   5.087  18.205  0.00  0.00    +0.000 F 
ATOM      7  C   UNL     1      50.095   5.494  17.382  0.00  0.00    +0.000 A 
ATOM      8  C   UNL     1      49.321   6.188  16.438  0.00  0.00    +0.000 A 
BRANCH   7   9
ATOM      9  C   UNL     1      49.493   4.449  18.324  0.00  0.00    +0.000 C 
ATOM     10  C   UNL     1      49.438   3.001  17.778  0.00  0.00    +0.000 C 
ATOM     11  C   UNL     1      48.313   2.810  16.755  0.00  0.00    +0.000 C 
ATOM     12  C   UNL     1      46.971   3.336  17.260  0.00  0.00    +0.000 C 
ATOM     13  N   UNL     1      47.057   4.689  17.802  0.00  0.00    +0.000 NA
ATOM     14  C   UNL     1      48.079   4.791  18.849  0.00  0.00    +0.000 C 
ATOM     15  H   UNL     1      46.153   4.956  18.193  0.00  0.00    +0.000 HD
ENDBRANCH   7   9
ENDBRANCH   1   2
BRANCH   1  16
ATOM     16  C   UNL     1      48.822   6.953  13.216  0.00  0.00    +0.000 C 
BRANCH  16  22
ATOM     17  C   UNL     1      46.356   6.847  12.568  0.00  0.00    +0.000 A 
ATOM     18  C   UNL     1      45.175   6.099  12.525  0.00  0.00    +0.000 A 
ATOM     19  C   UNL     1      45.125   4.815  13.071  0.00  0.00    +0.000 A 
ATOM     20  C   UNL     1      46.282   4.326  13.651  0.00  0.00    +0.000 A 
ATOM     21  N   UNL     1      47.453   5.007  13.697  0.00  0.00    +0.000 NA
ATOM     22  C   UNL     1      47.487   6.250  13.147  0.00  0.00    +0.000 A 
BRANCH  19  23
ATOM     23  C   UNL     1      43.849   4.066  13.007  0.00  0.00    +0.000 C 
ATOM     24  N   UNL     1      43.865   2.752  12.630  0.00  0.00    +0.000 N 
ATOM     25  O   UNL     1      42.781   4.604  13.286  0.00  0.00    +0.000 OA
ATOM     26  H   UNL     1      44.677   2.218  12.364  0.00  0.00    +0.000 HD
ATOM     27  H   UNL     1      42.967   2.281  12.594  0.00  0.00    +0.000 HD
ENDBRANCH  19  23
BRANCH  17  29
ATOM     28  C   UNL     1      45.620   9.095  12.637  0.00  0.00    +0.000 C 
ATOM     29  O   UNL     1      46.480   8.113  12.062  0.00  0.00    +0.000 OA
ENDBRANCH  17  29
ENDBRANCH  16  22
ENDBRANCH   1  16
TORSDOF 6
ENDMDL
MODEL 6
REMARK VINA RESULT:    -7.031      5.335      8.156
REMARK INTER + INTRA:          -9.734
REMARK INTER:                  -9.185
REMARK INTRA:                  -0.549
REMARK UNBOUND:                -0.237
REMARK  Name = 
REMARK  7 active torsions:
REMARK  status: ('A' for Active; 'I' for Inactive)
REMARK    1  A    between atoms: C_1  and  O_2
REMARK    2  A    between atoms: O_2  and  C_3
REMARK    3  A    between atoms: C_5  and  C_6
REMARK    4  A    between atoms: C_11  and  C_12
REMARK    5  A    between atoms: C_12  and  C_13
REMARK    6  A    between atoms: C_13  and  C_14
REMARK    7  A    between atoms: C_19  and  C_20
REMARK                            x       y       z     vdW  Elec       q    Type
REMARK                         _______ _______ _______ _____ _____    ______ ____
ROOT
ATOM      1  C   UNL     1      46.980   4.301  15.689  0.00  0.00    +0.000 C 
ENDROOT
BRANCH   1   2
ATOM      2  C   UNL     1      47.044   5.081  14.394  0.00  0.00    +0.000 A 
ATOM      3  C   UNL     1      48.035   6.034  14.157  0.00  0.00    +0.000 A 
ATOM      4  C   UNL     1      48.053   6.725  12.946  0.00  0.00    +0.000 A 
ATOM      5  C   UNL     1      47.067   6.488  11.986  0.00  0.00    +0.000 A 
ATOM      6  F   UNL     1      47.109   7.215  10.860  0.00  0.00    +0.000 F 
ATOM      7  C   UNL     1      46.037   5.560  12.197  0.00  0.00    +0.000 A 
ATOM      8  C   UNL     1      46.056   4.864  13.417  0.00  0.00    +0.000 A 
BRANCH   7   9
ATOM      9  C   UNL     1      44.898   5.405  11.187  0.00  0.00    +0.000 C 
ATOM     10  C   UNL     1      43.471   5.348  11.784  0.00  0.00    +0.000 C 
ATOM     11  C   UNL     1      43.163   3.989  12.422  0.00  0.00    +0.000 C 
ATOM     12  C   UNL     1      43.498   2.822  11.495  0.00  0.00    +0.000 C 
ATOM     13  N   UNL     1      44.836   2.918  10.918  0.00  0.00    +0.000 NA
ATOM     14  C   UNL     1      45.040   4.198  10.232  0.00  0.00    +0.000 C 
ATOM     15  H   UNL     1      44.974   2.158  10.252  0.00  0.00    +0.000 HD
ENDBRANCH   7   9
ENDBRANCH   1   2
BRANCH   1  16
ATOM     16  C   UNL     1      47.879   4.910  16.767  0.00  0.00    +0.000 C 
BRANCH  16  22
ATOM     17  C   UNL     1      50.267   4.584  17.607  0.00  0.00    +0.000 A 
ATOM     18  C   UNL     1      51.326   3.704  17.849  0.00  0.00    +0.000 A 
ATOM     19  C   UNL     1      51.223   2.355  17.507  0.00  0.00    +0.000 A 
ATOM     20  C   UNL     1      50.042   1.936  16.920  0.00  0.00    +0.000 A 
ATOM     21  N   UNL     1      48.983   2.750  16.686  0.00  0.00    +0.000 NA
ATOM     22  C   UNL     1      49.096   4.057  17.041  0.00  0.00    +0.000 A 
BRANCH  19  23
ATOM     23  C   UNL     1      52.375   1.464  17.777  0.00  0.00    +0.000 C 
ATOM     24  N   UNL     1      52.145   0.180  18.184  0.00  0.00    +0.000 N 
ATOM     25  O   UNL     1      53.530   1.859  17.640  0.00  0.00    +0.000 OA
ATOM     26  H   UNL     1      51.243  -0.242  18.345  0.00  0.00    +0.000 HD
ATOM     27  H   UNL     1      52.964  -0.391  18.365  0.00  0.00    +0.000 HD
ENDBRANCH  19  23
BRANCH  17  29
ATOM     28  C   UNL     1      51.536   6.412  18.414  0.00  0.00    +0.000 C 
ATOM     29  O   UNL     1      50.296   5.920  17.909  0.00  0.00    +0.000 OA
ENDBRANCH  17  29
ENDBRANCH  16  22
ENDBRANCH   1  16
TORSDOF 6
ENDMDL
MODEL 7
REMARK VINA RESULT:    -6.799      4.336      6.148
REMARK INTER + INTRA:          -9.422
REMARK INTER:                  -8.726
REMARK INTRA:                  -0.695
REMARK UNBOUND:                -0.237
REMARK  Name = 
REMARK  7 active torsions:
REMARK  status: ('A' for Active; 'I' for Inactive)
REMARK    1  A    between atoms: C_1  and  O_2
REMARK    2  A    between atoms: O_2  and  C_3
REMARK    3  A    between atoms: C_5  and  C_6
REMARK    4  A    between atoms: C_11  and  C_12
REMARK    5  A    between atoms: C_12  and  C_13
REMARK    6  A    between atoms: C_13  and  C_14
REMARK    7  A    between atoms: C_19  and  C_20
REMARK                            x       y       z     vdW  Elec       q    Type
REMARK                         _______ _______ _______ _____ _____    ______ ____
ROOT
ATOM      1  C   UNL     1      46.239   8.653  13.072  0.00  0.00    +0.000 C 
ENDROOT
BRANCH   1   2
ATOM      2  C   UNL     1      46.019   9.756  12.060  0.00  0.00    +0.000 A 
ATOM      3  C   UNL     1      47.011  10.690  11.761  0.00  0.00    +0.000 A 
ATOM      4  C   UNL     1      46.761  11.686  10.817  0.00  0.00    +0.000 A 
ATOM      5  C   UNL     1      45.513  11.768  10.197  0.00  0.00    +0.000 A 
ATOM      6  F   UNL     1      45.314  12.775   9.333  0.00  0.00    +0.000 F 
ATOM      7  C   UNL     1      44.479  10.867  10.490  0.00  0.00    +0.000 A 
ATOM      8  C   UNL     1      44.767   9.862  11.428  0.00  0.00    +0.000 A 
BRANCH   7   9
ATOM      9  C   UNL     1      43.082  11.050   9.892  0.00  0.00    +0.000 C 
ATOM     10  C   UNL     1      42.521  12.493   9.919  0.00  0.00    +0.000 C 
ATOM     11  C   UNL     1      42.038  12.901  11.315  0.00  0.00    +0.000 C 
ATOM     12  C   UNL     1      41.110  11.861  11.937  0.00  0.00    +0.000 C 
ATOM     13  N   UNL     1      41.646  10.504  11.868  0.00  0.00    +0.000 NA
ATOM     14  C   UNL     1      41.996  10.129  10.494  0.00  0.00    +0.000 C 
ATOM     15  H   UNL     1      40.954   9.847  12.226  0.00  0.00    +0.000 HD
ENDBRANCH   7   9
ENDBRANCH   1   2
BRANCH   1  16
ATOM     16  C   UNL     1      47.155   7.555  12.528  0.00  0.00    +0.000 C 
BRANCH  16  22
ATOM     17  C   UNL     1      46.291   5.201  13.004  0.00  0.00    +0.000 A 
ATOM     18  C   UNL     1      45.530   4.111  12.572  0.00  0.00    +0.000 A 
ATOM     19  C   UNL     1      44.916   4.122  11.319  0.00  0.00    +0.000 A 
ATOM     20  C   UNL     1      45.097   5.246  10.533  0.00  0.00    +0.000 A 
ATOM     21  N   UNL     1      45.809   6.333  10.919  0.00  0.00    +0.000 NA
ATOM     22  C   UNL     1      46.387   6.311  12.149  0.00  0.00    +0.000 A 
BRANCH  19  23
ATOM     23  C   UNL     1      44.126   2.940  10.905  0.00  0.00    +0.000 C 
ATOM     24  N   UNL     1      44.584   2.156   9.881  0.00  0.00    +0.000 N 
ATOM     25  O   UNL     1      43.071   2.652  11.463  0.00  0.00    +0.000 OA
ATOM     26  H   UNL     1      45.423   2.308   9.345  0.00  0.00    +0.000 HD
ATOM     27  H   UNL     1      44.006   1.362   9.627  0.00  0.00    +0.000 HD
ENDBRANCH  19  23
BRANCH  17  29
ATOM     28  C   UNL     1      46.994   4.032  14.938  0.00  0.00    +0.000 C 
ATOM     29  O   UNL     1      46.928   5.260  14.215  0.00  0.00    +0.000 OA
ENDBRANCH  17  29
ENDBRANCH  16  22
ENDBRANCH   1  16
TORSDOF 6
ENDMDL
MODEL 8
REMARK VINA RESULT:    -6.722      3.854      6.407
REMARK INTER + INTRA:          -9.318
REMARK INTER:                  -8.190
REMARK INTRA:                  -1.127
REMARK UNBOUND:                -0.237
REMARK  Name = 
REMARK  7 active torsions:
REMARK  status: ('A' for Active; 'I' for Inactive)
REMARK    1  A    between atoms: C_1  and  O_2
REMARK    2  A    between atoms: O_2  and  C_3
REMARK    3  A    between atoms: C_5  and  C_6
REMARK    4  A    between atoms: C_11  and  C_12
REMARK    5  A    between atoms: C_12  and  C_13
REMARK    6  A    between atoms: C_13  and  C_14
REMARK    7  A    between atoms: C_19  and  C_20
REMARK                            x       y       z     vdW  Elec       q    Type
REMARK                         _______ _______ _______ _____ _____    ______ ____
ROOT
ATOM      1  C   UNL     1      49.539   7.433  13.697  0.00  0.00    +0.000 C 
ENDROOT
BRANCH   1   2
ATOM      2  C   UNL     1      49.061   7.864  15.067  0.00  0.00    +0.000 A 
ATOM      3  C   UNL     1      48.692   9.182  15.336  0.00  0.00    +0.000 A 
ATOM      4  C   UNL     1      48.255   9.529  16.613  0.00  0.00    +0.000 A 
ATOM      5  C   UNL     1      48.215   8.571  17.628  0.00  0.00    +0.000 A 
ATOM      6  F   UNL     1      47.831   8.973  18.848  0.00  0.00    +0.000 F 
ATOM      7  C   UNL     1      48.605   7.242  17.406  0.00  0.00    +0.000 A 
ATOM      8  C   UNL     1      49.021   6.917  16.104  0.00  0.00    +0.000 A 
BRANCH   7   9
ATOM      9  C   UNL     1      48.672   6.239  18.559  0.00  0.00    +0.000 C 
ATOM     10  C   UNL     1      49.597   5.016  18.337  0.00  0.00    +0.000 C 
ATOM     11  C   UNL     1      48.970   3.979  17.398  0.00  0.00    +0.000 C 
ATOM     12  C   UNL     1      47.543   3.615  17.802  0.00  0.00    +0.000 C 
ATOM     13  N   UNL     1      46.702   4.786  18.040  0.00  0.00    +0.000 NA
ATOM     14  C   UNL     1      47.302   5.693  19.023  0.00  0.00    +0.000 C 
ATOM     15  H   UNL     1      45.789   4.484  18.380  0.00  0.00    +0.000 HD
ENDBRANCH   7   9
ENDBRANCH   1   2
BRANCH   1  16
ATOM     16  C   UNL     1      48.550   7.828  12.598  0.00  0.00    +0.000 C 
BRANCH  16  22
ATOM     17  C   UNL     1      46.009   7.764  12.825  0.00  0.00    +0.000 A 
ATOM     18  C   UNL     1      44.848   6.990  12.905  0.00  0.00    +0.000 A 
ATOM     19  C   UNL     1      44.920   5.597  12.916  0.00  0.00    +0.000 A 
ATOM     20  C   UNL     1      46.178   5.025  12.847  0.00  0.00    +0.000 A 
ATOM     21  N   UNL     1      47.328   5.736  12.748  0.00  0.00    +0.000 NA
ATOM     22  C   UNL     1      47.237   7.092  12.723  0.00  0.00    +0.000 A 
BRANCH  19  23
ATOM     23  C   UNL     1      43.662   4.821  13.010  0.00  0.00    +0.000 C 
ATOM     24  N   UNL     1      42.475   5.437  12.722  0.00  0.00    +0.000 N 
ATOM     25  O   UNL     1      43.667   3.638  13.341  0.00  0.00    +0.000 OA
ATOM     26  H   UNL     1      42.353   6.402  12.459  0.00  0.00    +0.000 HD
ATOM     27  H   UNL     1      41.639   4.868  12.807  0.00  0.00    +0.000 HD
ENDBRANCH  19  23
BRANCH  17  29
ATOM     28  C   UNL     1      45.195   9.751  11.829  0.00  0.00    +0.000 C 
ATOM     29  O   UNL     1      46.019   9.134  12.817  0.00  0.00    +0.000 OA
ENDBRANCH  17  29
ENDBRANCH  16  22
ENDBRANCH   1  16
TORSDOF 6
ENDMDL
MODEL 9
REMARK VINA RESULT:    -6.626      4.601      6.197
REMARK INTER + INTRA:          -9.188
REMARK INTER:                  -8.570
REMARK INTRA:                  -0.617
REMARK UNBOUND:                -0.237
REMARK  Name = 
REMARK  7 active torsions:
REMARK  status: ('A' for Active; 'I' for Inactive)
REMARK    1  A    between atoms: C_1  and  O_2
REMARK    2  A    between atoms: O_2  and  C_3
REMARK    3  A    between atoms: C_5  and  C_6
REMARK    4  A    between atoms: C_11  and  C_12
REMARK    5  A    between atoms: C_12  and  C_13
REMARK    6  A    between atoms: C_13  and  C_14
REMARK    7  A    between atoms: C_19  and  C_20
REMARK                            x       y       z     vdW  Elec       q    Type
REMARK                         _______ _______ _______ _____ _____    ______ ____
ROOT
ATOM      1  C   UNL     1      47.217   3.953  16.071  0.00  0.00    +0.000 C 
ENDROOT
BRANCH   1   2
ATOM      2  C   UNL     1      48.557   3.559  16.653  0.00  0.00    +0.000 A 
ATOM      3  C   UNL     1      49.059   2.263  16.535  0.00  0.00    +0.000 A 
ATOM      4  C   UNL     1      50.301   1.951  17.086  0.00  0.00    +0.000 A 
ATOM      5  C   UNL     1      51.027   2.921  17.779  0.00  0.00    +0.000 A 
ATOM      6  F   UNL     1      52.194   2.550  18.328  0.00  0.00    +0.000 F 
ATOM      7  C   UNL     1      50.545   4.227  17.946  0.00  0.00    +0.000 A 
ATOM      8  C   UNL     1      49.301   4.518  17.362  0.00  0.00    +0.000 A 
BRANCH   7   9
ATOM      9  C   UNL     1      51.297   5.239  18.814  0.00  0.00    +0.000 C 
ATOM     10  C   UNL     1      51.455   4.860  20.307  0.00  0.00    +0.000 C 
ATOM     11  C   UNL     1      50.157   5.063  21.096  0.00  0.00    +0.000 C 
ATOM     12  C   UNL     1      49.544   6.442  20.866  0.00  0.00    +0.000 C 
ATOM     13  N   UNL     1      49.439   6.790  19.451  0.00  0.00    +0.000 NA
ATOM     14  C   UNL     1      50.731   6.677  18.767  0.00  0.00    +0.000 C 
ATOM     15  H   UNL     1      49.098   7.746  19.361  0.00  0.00    +0.000 HD
ENDBRANCH   7   9
ENDBRANCH   1   2
BRANCH   1  16
ATOM     16  C   UNL     1      47.350   5.083  15.048  0.00  0.00    +0.000 C 
BRANCH  16  22
ATOM     17  C   UNL     1      46.281   5.804  12.845  0.00  0.00    +0.000 A 
ATOM     18  C   UNL     1      45.575   5.435  11.696  0.00  0.00    +0.000 A 
ATOM     19  C   UNL     1      45.143   4.120  11.518  0.00  0.00    +0.000 A 
ATOM     20  C   UNL     1      45.439   3.212  12.519  0.00  0.00    +0.000 A 
ATOM     21  N   UNL     1      46.139   3.521  13.638  0.00  0.00    +0.000 NA
ATOM     22  C   UNL     1      46.565   4.803  13.788  0.00  0.00    +0.000 A 
BRANCH  19  23
ATOM     23  C   UNL     1      44.392   3.780  10.287  0.00  0.00    +0.000 C 
ATOM     24  N   UNL     1      43.980   4.786   9.458  0.00  0.00    +0.000 N 
ATOM     25  O   UNL     1      44.134   2.614  10.001  0.00  0.00    +0.000 OA
ATOM     26  H   UNL     1      44.120   5.774   9.603  0.00  0.00    +0.000 HD
ATOM     27  H   UNL     1      43.462   4.507   8.631  0.00  0.00    +0.000 HD
ENDBRANCH  19  23
BRANCH  17  29
ATOM     28  C   UNL     1      47.733   7.559  12.203  0.00  0.00    +0.000 C 
ATOM     29  O   UNL     1      46.731   7.073  13.094  0.00  0.00    +0.000 OA
ENDBRANCH  17  29
ENDBRANCH  16  22
ENDBRANCH   1  16
TORSDOF 6
ENDMDL
