MODEL 1
REMARK VINA RESULT:    -6.946      0.000      0.000
REMARK INTER + INTRA:          -9.984
REMARK INTER:                  -8.976
REMARK INTRA:                  -1.008
REMARK UNBOUND:                -1.008
REMARK  Name = 
REMARK  7 active torsions:
REMARK  status: ('A' for Active; 'I' for Inactive)
REMARK    1  A    between atoms: C_1  and  C_2
REMARK    2  A    between atoms: N_4  and  C_5
REMARK    3  A    between atoms: C_8  and  C_9
REMARK    4  A    between atoms: C_11  and  C_12
REMARK    5  A    between atoms: C_13  and  C_14
REMARK    6  A    between atoms: C_19  and  C_20
REMARK    7  A    between atoms: C_26  and  C_27
REMARK                            x       y       z     vdW  Elec       q    Type
REMARK                         _______ _______ _______ _____ _____    ______ ____
ROOT
ATOM      1  C   UNL     1      49.648   6.340  16.263  0.00  0.00    +0.000 A 
ATOM      2  C   UNL     1      50.580   7.351  16.037  0.00  0.00    +0.000 A 
ATOM      3  C   UNL     1      50.543   8.109  14.874  0.00  0.00    +0.000 A 
ATOM      4  C   UNL     1      49.541   7.901  13.906  0.00  0.00    +0.000 A 
ATOM      5  C   UNL     1      48.541   6.926  14.119  0.00  0.00    +0.000 A 
ATOM      6  C   UNL     1      48.667   6.134  15.277  0.00  0.00    +0.000 A 
ENDROOT
BRANCH   1  10
ATOM      7  C   UNL     1      46.894   5.780  18.958  0.00  0.00    +0.000 C 
ATOM      8  C   UNL     1      48.290   5.380  19.433  0.00  0.00    +0.000 C 
ATOM      9  C   UNL     1      49.418   6.168  18.734  0.00  0.00    +0.000 C 
ATOM     10  N   UNL     1      49.693   5.593  17.414  0.00  0.00    +0.000 N 
ATOM     11  C   UNL     1      49.991   4.161  17.432  0.00  0.00    +0.000 C 
ATOM     12  C   UNL     1      48.851   3.392  18.122  0.00  0.00    +0.000 C 
ATOM     13  C   UNL     1      47.634   3.207  17.221  0.00  0.00    +0.000 C 
ATOM     14  O   UNL     1      48.490   3.953  19.398  0.00  0.00    +0.000 OA
ENDBRANCH   1  10
BRANCH   4  15
ATOM     15  C   UNL     1      49.621   8.732  12.748  0.00  0.00    +0.000 C 
ATOM     16  N   UNL     1      49.623   9.370  11.765  0.00  0.00    +0.000 NA
ENDBRANCH   4  15
BRANCH   5  17
ATOM     17  C   UNL     1      47.380   6.648  13.222  0.00  0.00    +0.000 C 
ATOM     18  C   UNL     1      46.522   5.607  13.326  0.00  0.00    +0.000 C 
BRANCH  18  19
ATOM     19  C   UNL     1      45.382   5.337  12.431  0.00  0.00    +0.000 A 
ATOM     20  C   UNL     1      44.065   5.649  12.774  0.00  0.00    +0.000 A 
ATOM     21  C   UNL     1      43.050   5.455  11.842  0.00  0.00    +0.000 A 
ATOM     22  F   UNL     1      41.793   5.780  12.170  0.00  0.00    +0.000 F 
ATOM     23  C   UNL     1      43.308   4.957  10.569  0.00  0.00    +0.000 A 
ATOM     24  C   UNL     1      44.618   4.642  10.205  0.00  0.00    +0.000 A 
ATOM     25  C   UNL     1      45.647   4.842  11.141  0.00  0.00    +0.000 A 
BRANCH  24  26
ATOM     26  C   UNL     1      44.987   4.112   8.861  0.00  0.00    +0.000 C 
ATOM     27  N   UNL     1      44.348   2.997   8.396  0.00  0.00    +0.000 N 
ATOM     28  O   UNL     1      45.846   4.654   8.175  0.00  0.00    +0.000 OA
ATOM     29  H   UNL     1      43.640   2.476   8.887  0.00  0.00    +0.000 HD
ATOM     30  H   UNL     1      44.631   2.660   7.484  0.00  0.00    +0.000 HD
ENDBRANCH  24  26
ENDBRANCH  18  19
ENDBRANCH   5  17
TORSDOF 5
ENDMDL
MODEL 2
REMARK VINA RESULT:    -6.552      3.153      8.426
REMARK INTER + INTRA:          -9.475
REMARK INTER:                  -8.580
REMARK INTRA:                  -0.895
REMARK UNBOUND:                -1.008
REMARK  Name = 
REMARK  7 active torsions:
REMARK  status: ('A' for Active; 'I' for Inactive)
REMARK    1  A    between atoms: C_1  and  C_2
REMARK    2  A    between atoms: N_4  and  C_5
REMARK    3  A    between atoms: C_8  and  C_9
REMARK    4  A    between atoms: C_11  and  C_12
REMARK    5  A    between atoms: C_13  and  C_14
REMARK    6  A    between atoms: C_19  and  C_20
REMARK    7  A    between atoms: C_26  and  C_27
REMARK                            x       y       z     vdW  Elec       q    Type
REMARK                         _______ _______ _______ _____ _____    ______ ____
ROOT
ATOM      1  C   UNL     1      46.208   5.324  12.827  0.00  0.00    +0.000 A 
ATOM      2  C   UNL     1      46.673   6.151  11.807  0.00  0.00    +0.000 A 
ATOM      3  C   UNL     1      47.726   7.030  12.025  0.00  0.00    +0.000 A 
ATOM      4  C   UNL     1      48.376   7.086  13.273  0.00  0.00    +0.000 A 
ATOM      5  C   UNL     1      47.977   6.224  14.319  0.00  0.00    +0.000 A 
ATOM      6  C   UNL     1      46.857   5.407  14.072  0.00  0.00    +0.000 A 
ENDROOT
BRANCH   1  10
ATOM      7  C   UNL     1      42.691   6.027  11.310  0.00  0.00    +0.000 C 
ATOM      8  C   UNL     1      42.772   4.691  12.047  0.00  0.00    +0.000 C 
ATOM      9  C   UNL     1      43.830   4.681  13.171  0.00  0.00    +0.000 C 
ATOM     10  N   UNL     1      45.165   4.460  12.606  0.00  0.00    +0.000 N 
ATOM     11  C   UNL     1      45.275   3.261  11.774  0.00  0.00    +0.000 C 
ATOM     12  C   UNL     1      44.221   3.296  10.654  0.00  0.00    +0.000 C 
ATOM     13  C   UNL     1      44.609   4.223   9.507  0.00  0.00    +0.000 C 
ATOM     14  O   UNL     1      42.895   3.576  11.143  0.00  0.00    +0.000 OA
ENDBRANCH   1  10
BRANCH   4  15
ATOM     15  C   UNL     1      49.432   8.041  13.375  0.00  0.00    +0.000 C 
ATOM     16  N   UNL     1      50.340   8.781  13.400  0.00  0.00    +0.000 NA
ENDBRANCH   4  15
BRANCH   5  17
ATOM     17  C   UNL     1      48.619   6.118  15.664  0.00  0.00    +0.000 C 
ATOM     18  C   UNL     1      48.391   5.153  16.583  0.00  0.00    +0.000 C 
BRANCH  18  19
ATOM     19  C   UNL     1      49.025   5.060  17.911  0.00  0.00    +0.000 A 
ATOM     20  C   UNL     1      50.388   4.812  18.079  0.00  0.00    +0.000 A 
ATOM     21  C   UNL     1      50.937   4.834  19.357  0.00  0.00    +0.000 A 
ATOM     22  F   UNL     1      52.250   4.618  19.508  0.00  0.00    +0.000 F 
ATOM     23  C   UNL     1      50.163   5.098  20.483  0.00  0.00    +0.000 A 
ATOM     24  C   UNL     1      48.799   5.352  20.337  0.00  0.00    +0.000 A 
ATOM     25  C   UNL     1      48.242   5.338  19.047  0.00  0.00    +0.000 A 
BRANCH  24  26
ATOM     26  C   UNL     1      47.897   5.654  21.485  0.00  0.00    +0.000 C 
ATOM     27  N   UNL     1      47.433   6.930  21.639  0.00  0.00    +0.000 N 
ATOM     28  O   UNL     1      47.568   4.785  22.284  0.00  0.00    +0.000 OA
ATOM     29  H   UNL     1      47.654   7.713  21.045  0.00  0.00    +0.000 HD
ATOM     30  H   UNL     1      46.830   7.101  22.435  0.00  0.00    +0.000 HD
ENDBRANCH  24  26
ENDBRANCH  18  19
ENDBRANCH   5  17
TORSDOF 5
ENDMDL
MODEL 3
REMARK VINA RESULT:    -6.443      2.289      4.277
REMARK INTER + INTRA:          -9.334
REMARK INTER:                  -8.439
REMARK INTRA:                  -0.895
REMARK UNBOUND:                -1.008
REMARK  Name = 
REMARK  7 active torsions:
REMARK  status: ('A' for Active; 'I' for Inactive)
REMARK    1  A    between atoms: C_1  and  C_2
REMARK    2  A    between atoms: N_4  and  C_5
REMARK    3  A    between atoms: C_8  and  C_9
REMARK    4  A    between atoms: C_11  and  C_12
REMARK    5  A    between atoms: C_13  and  C_14
REMARK    6  A    between atoms: C_19  and  C_20
REMARK    7  A    between atoms: C_26  and  C_27
REMARK                            x       y       z     vdW  Elec       q    Type
REMARK                         _______ _______ _______ _____ _____    ______ ____
ROOT
ATOM      1  C   UNL     1      49.876   7.072  15.470  0.00  0.00    +0.000 A 
ATOM      2  C   UNL     1      50.158   6.409  16.663  0.00  0.00    +0.000 A 
ATOM      3  C   UNL     1      49.340   5.386  17.122  0.00  0.00    +0.000 A 
ATOM      4  C   UNL     1      48.221   4.965  16.380  0.00  0.00    +0.000 A 
ATOM      5  C   UNL     1      47.928   5.568  15.136  0.00  0.00    +0.000 A 
ATOM      6  C   UNL     1      48.743   6.650  14.751  0.00  0.00    +0.000 A 
ENDROOT
BRANCH   1  10
ATOM      7  C   UNL     1      49.800  10.868  16.335  0.00  0.00    +0.000 C 
ATOM      8  C   UNL     1      50.628  10.550  15.090  0.00  0.00    +0.000 C 
ATOM      9  C   UNL     1      50.157   9.277  14.356  0.00  0.00    +0.000 C 
ATOM     10  N   UNL     1      50.687   8.084  15.023  0.00  0.00    +0.000 N 
ATOM     11  C   UNL     1      52.141   8.084  15.189  0.00  0.00    +0.000 C 
ATOM     12  C   UNL     1      52.589   9.354  15.932  0.00  0.00    +0.000 C 
ATOM     13  C   UNL     1      52.339   9.277  17.434  0.00  0.00    +0.000 C 
ATOM     14  O   UNL     1      52.043  10.558  15.360  0.00  0.00    +0.000 OA
ENDBRANCH   1  10
BRANCH   4  15
ATOM     15  C   UNL     1      47.450   3.916  16.967  0.00  0.00    +0.000 C 
ATOM     16  N   UNL     1      46.750   3.104  17.438  0.00  0.00    +0.000 NA
ENDBRANCH   4  15
BRANCH   5  17
ATOM     17  C   UNL     1      46.825   5.177  14.207  0.00  0.00    +0.000 C 
ATOM     18  C   UNL     1      46.436   5.850  13.101  0.00  0.00    +0.000 C 
BRANCH  18  19
ATOM     19  C   UNL     1      45.342   5.460  12.194  0.00  0.00    +0.000 A 
ATOM     20  C   UNL     1      43.995   5.616  12.526  0.00  0.00    +0.000 A 
ATOM     21  C   UNL     1      43.017   5.317  11.585  0.00  0.00    +0.000 A 
ATOM     22  F   UNL     1      41.728   5.493  11.903  0.00  0.00    +0.000 F 
ATOM     23  C   UNL     1      43.340   4.863  10.310  0.00  0.00    +0.000 A 
ATOM     24  C   UNL     1      44.680   4.702   9.956  0.00  0.00    +0.000 A 
ATOM     25  C   UNL     1      45.673   5.010  10.902  0.00  0.00    +0.000 A 
BRANCH  24  26
ATOM     26  C   UNL     1      45.119   4.230   8.611  0.00  0.00    +0.000 C 
ATOM     27  N   UNL     1      44.428   3.212   8.015  0.00  0.00    +0.000 N 
ATOM     28  O   UNL     1      46.078   4.733   8.039  0.00  0.00    +0.000 OA
ATOM     29  H   UNL     1      43.637   2.728   8.407  0.00  0.00    +0.000 HD
ATOM     30  H   UNL     1      44.759   2.911   7.106  0.00  0.00    +0.000 HD
ENDBRANCH  24  26
ENDBRANCH  18  19
ENDBRANCH   5  17
TORSDOF 5
ENDMDL
MODEL 4
REMARK VINA RESULT:    -6.443      3.081      8.150
REMARK INTER + INTRA:          -9.334
REMARK INTER:                  -8.446
REMARK INTRA:                  -0.888
REMARK UNBOUND:                -1.008
REMARK  Name = 
REMARK  7 active torsions:
REMARK  status: ('A' for Active; 'I' for Inactive)
REMARK    1  A    between atoms: C_1  and  C_2
REMARK    2  A    between atoms: N_4  and  C_5
REMARK    3  A    between atoms: C_8  and  C_9
REMARK    4  A    between atoms: C_11  and  C_12
REMARK    5  A    between atoms: C_13  and  C_14
REMARK    6  A    between atoms: C_19  and  C_20
REMARK    7  A    between atoms: C_26  and  C_27
REMARK                            x       y       z     vdW  Elec       q    Type
REMARK                         _______ _______ _______ _____ _____    ______ ____
ROOT
ATOM      1  C   UNL     1      46.238   5.475  12.700  0.00  0.00    +0.000 A 
ATOM      2  C   UNL     1      46.613   6.307  11.649  0.00  0.00    +0.000 A 
ATOM      3  C   UNL     1      47.668   7.199  11.786  0.00  0.00    +0.000 A 
ATOM      4  C   UNL     1      48.411   7.264  12.981  0.00  0.00    +0.000 A 
ATOM      5  C   UNL     1      48.103   6.398  14.054  0.00  0.00    +0.000 A 
ATOM      6  C   UNL     1      46.978   5.566  13.892  0.00  0.00    +0.000 A 
ENDROOT
BRANCH   1  10
ATOM      7  C   UNL     1      42.658   6.095  11.298  0.00  0.00    +0.000 C 
ATOM      8  C   UNL     1      42.777   4.792  12.087  0.00  0.00    +0.000 C 
ATOM      9  C   UNL     1      43.880   4.836  13.167  0.00  0.00    +0.000 C 
ATOM     10  N   UNL     1      45.192   4.597  12.559  0.00  0.00    +0.000 N 
ATOM     11  C   UNL     1      45.276   3.364  11.775  0.00  0.00    +0.000 C 
ATOM     12  C   UNL     1      44.178   3.346  10.699  0.00  0.00    +0.000 C 
ATOM     13  C   UNL     1      44.514   4.224   9.498  0.00  0.00    +0.000 C 
ATOM     14  O   UNL     1      42.871   3.640  11.228  0.00  0.00    +0.000 OA
ENDBRANCH   1  10
BRANCH   4  15
ATOM     15  C   UNL     1      49.459   8.233  13.003  0.00  0.00    +0.000 C 
ATOM     16  N   UNL     1      50.374   8.965  13.010  0.00  0.00    +0.000 NA
ENDBRANCH   4  15
BRANCH   5  17
ATOM     17  C   UNL     1      48.847   6.301  15.346  0.00  0.00    +0.000 C 
ATOM     18  C   UNL     1      48.698   5.337  16.283  0.00  0.00    +0.000 C 
BRANCH  18  19
ATOM     19  C   UNL     1      49.432   5.253  17.558  0.00  0.00    +0.000 A 
ATOM     20  C   UNL     1      48.906   5.724  18.763  0.00  0.00    +0.000 A 
ATOM     21  C   UNL     1      49.612   5.524  19.944  0.00  0.00    +0.000 A 
ATOM     22  F   UNL     1      49.089   5.957  21.099  0.00  0.00    +0.000 F 
ATOM     23  C   UNL     1      50.837   4.865  19.963  0.00  0.00    +0.000 A 
ATOM     24  C   UNL     1      51.380   4.385  18.771  0.00  0.00    +0.000 A 
ATOM     25  C   UNL     1      50.667   4.578  17.576  0.00  0.00    +0.000 A 
BRANCH  24  26
ATOM     26  C   UNL     1      52.681   3.660  18.699  0.00  0.00    +0.000 C 
ATOM     27  N   UNL     1      52.674   2.293  18.732  0.00  0.00    +0.000 N 
ATOM     28  O   UNL     1      53.744   4.262  18.613  0.00  0.00    +0.000 OA
ATOM     29  H   UNL     1      51.858   1.709  18.813  0.00  0.00    +0.000 HD
ATOM     30  H   UNL     1      53.577   1.835  18.691  0.00  0.00    +0.000 HD
ENDBRANCH  24  26
ENDBRANCH  18  19
ENDBRANCH   5  17
TORSDOF 5
ENDMDL
MODEL 5
REMARK VINA RESULT:    -6.438      2.457      5.071
REMARK INTER + INTRA:          -9.327
REMARK INTER:                  -8.320
REMARK INTRA:                  -1.007
REMARK UNBOUND:                -1.008
REMARK  Name = 
REMARK  7 active torsions:
REMARK  status: ('A' for Active; 'I' for Inactive)
REMARK    1  A    between atoms: C_1  and  C_2
REMARK    2  A    between atoms: N_4  and  C_5
REMARK    3  A    between atoms: C_8  and  C_9
REMARK    4  A    between atoms: C_11  and  C_12
REMARK    5  A    between atoms: C_13  and  C_14
REMARK    6  A    between atoms: C_19  and  C_20
REMARK    7  A    between atoms: C_26  and  C_27
REMARK                            x       y       z     vdW  Elec       q    Type
REMARK                         _______ _______ _______ _____ _____    ______ ____
ROOT
ATOM      1  C   UNL     1      50.521   7.987  14.526  0.00  0.00    +0.000 A 
ATOM      2  C   UNL     1      50.903   7.612  15.811  0.00  0.00    +0.000 A 
ATOM      3  C   UNL     1      50.125   6.742  16.562  0.00  0.00    +0.000 A 
ATOM      4  C   UNL     1      48.944   6.186  16.033  0.00  0.00    +0.000 A 
ATOM      5  C   UNL     1      48.547   6.492  14.712  0.00  0.00    +0.000 A 
ATOM      6  C   UNL     1      49.329   7.437  14.020  0.00  0.00    +0.000 A 
ENDROOT
BRANCH   1  10
ATOM      7  C   UNL     1      51.591   7.778  10.787  0.00  0.00    +0.000 C 
ATOM      8  C   UNL     1      52.420   8.775  11.595  0.00  0.00    +0.000 C 
ATOM      9  C   UNL     1      52.509   8.416  13.094  0.00  0.00    +0.000 C 
ATOM     10  N   UNL     1      51.294   8.851  13.790  0.00  0.00    +0.000 N 
ATOM     11  C   UNL     1      50.970  10.266  13.609  0.00  0.00    +0.000 C 
ATOM     12  C   UNL     1      50.875  10.600  12.111  0.00  0.00    +0.000 C 
ATOM     13  C   UNL     1      49.562  10.140  11.486  0.00  0.00    +0.000 C 
ATOM     14  O   UNL     1      52.014  10.137  11.361  0.00  0.00    +0.000 OA
ENDBRANCH   1  10
BRANCH   4  15
ATOM     15  C   UNL     1      48.224   5.319  16.909  0.00  0.00    +0.000 C 
ATOM     16  N   UNL     1      47.707   4.578  17.656  0.00  0.00    +0.000 NA
ENDBRANCH   4  15
BRANCH   5  17
ATOM     17  C   UNL     1      47.367   5.922  13.995  0.00  0.00    +0.000 C 
ATOM     18  C   UNL     1      46.832   6.388  12.843  0.00  0.00    +0.000 C 
BRANCH  18  19
ATOM     19  C   UNL     1      45.662   5.822  12.146  0.00  0.00    +0.000 A 
ATOM     20  C   UNL     1      44.371   5.878  12.673  0.00  0.00    +0.000 A 
ATOM     21  C   UNL     1      43.301   5.411  11.917  0.00  0.00    +0.000 A 
ATOM     22  F   UNL     1      42.062   5.490  12.421  0.00  0.00    +0.000 F 
ATOM     23  C   UNL     1      43.478   4.887  10.641  0.00  0.00    +0.000 A 
ATOM     24  C   UNL     1      44.760   4.825  10.094  0.00  0.00    +0.000 A 
ATOM     25  C   UNL     1      45.844   5.302  10.851  0.00  0.00    +0.000 A 
BRANCH  24  26
ATOM     26  C   UNL     1      45.042   4.288   8.731  0.00  0.00    +0.000 C 
ATOM     27  N   UNL     1      44.275   3.260   8.259  0.00  0.00    +0.000 N 
ATOM     28  O   UNL     1      45.940   4.749   8.036  0.00  0.00    +0.000 OA
ATOM     29  H   UNL     1      43.525   2.807   8.756  0.00  0.00    +0.000 HD
ATOM     30  H   UNL     1      44.501   2.914   7.334  0.00  0.00    +0.000 HD
ENDBRANCH  24  26
ENDBRANCH  18  19
ENDBRANCH   5  17
TORSDOF 5
ENDMDL
MODEL 6
REMARK VINA RESULT:    -6.361      3.125      7.669
REMARK INTER + INTRA:          -9.228
REMARK INTER:                  -8.241
REMARK INTRA:                  -0.987
REMARK UNBOUND:                -1.008
REMARK  Name = 
REMARK  7 active torsions:
REMARK  status: ('A' for Active; 'I' for Inactive)
REMARK    1  A    between atoms: C_1  and  C_2
REMARK    2  A    between atoms: N_4  and  C_5
REMARK    3  A    between atoms: C_8  and  C_9
REMARK    4  A    between atoms: C_11  and  C_12
REMARK    5  A    between atoms: C_13  and  C_14
REMARK    6  A    between atoms: C_19  and  C_20
REMARK    7  A    between atoms: C_26  and  C_27
REMARK                            x       y       z     vdW  Elec       q    Type
REMARK                         _______ _______ _______ _____ _____    ______ ____
ROOT
ATOM      1  C   UNL     1      45.707   7.005  11.907  0.00  0.00    +0.000 A 
ATOM      2  C   UNL     1      45.815   8.360  11.604  0.00  0.00    +0.000 A 
ATOM      3  C   UNL     1      46.693   9.179  12.301  0.00  0.00    +0.000 A 
ATOM      4  C   UNL     1      47.525   8.657  13.310  0.00  0.00    +0.000 A 
ATOM      5  C   UNL     1      47.491   7.278  13.612  0.00  0.00    +0.000 A 
ATOM      6  C   UNL     1      46.531   6.505  12.931  0.00  0.00    +0.000 A 
ENDROOT
BRANCH   1  10
ATOM      7  C   UNL     1      45.290   3.135  12.018  0.00  0.00    +0.000 C 
ATOM      8  C   UNL     1      44.618   3.778  10.806  0.00  0.00    +0.000 C 
ATOM      9  C   UNL     1      45.291   5.096  10.367  0.00  0.00    +0.000 C 
ATOM     10  N   UNL     1      44.834   6.201  11.216  0.00  0.00    +0.000 N 
ATOM     11  C   UNL     1      43.380   6.352  11.278  0.00  0.00    +0.000 C 
ATOM     12  C   UNL     1      42.731   5.032  11.727  0.00  0.00    +0.000 C 
ATOM     13  C   UNL     1      42.849   4.797  13.229  0.00  0.00    +0.000 C 
ATOM     14  O   UNL     1      43.192   3.896  10.971  0.00  0.00    +0.000 OA
ENDBRANCH   1  10
BRANCH   4  15
ATOM     15  C   UNL     1      48.371   9.604  13.963  0.00  0.00    +0.000 C 
ATOM     16  N   UNL     1      49.009  10.383  14.563  0.00  0.00    +0.000 NA
ENDBRANCH   4  15
BRANCH   5  17
ATOM     17  C   UNL     1      48.363   6.572  14.599  0.00  0.00    +0.000 C 
ATOM     18  C   UNL     1      48.025   6.231  15.863  0.00  0.00    +0.000 C 
BRANCH  18  19
ATOM     19  C   UNL     1      48.895   5.540  16.832  0.00  0.00    +0.000 A 
ATOM     20  C   UNL     1      49.260   6.107  18.055  0.00  0.00    +0.000 A 
ATOM     21  C   UNL     1      50.003   5.361  18.962  0.00  0.00    +0.000 A 
ATOM     22  F   UNL     1      50.329   5.903  20.143  0.00  0.00    +0.000 F 
ATOM     23  C   UNL     1      50.399   4.055  18.688  0.00  0.00    +0.000 A 
ATOM     24  C   UNL     1      50.042   3.468  17.474  0.00  0.00    +0.000 A 
ATOM     25  C   UNL     1      49.285   4.217  16.556  0.00  0.00    +0.000 A 
BRANCH  24  26
ATOM     26  C   UNL     1      50.414   2.073  17.100  0.00  0.00    +0.000 C 
ATOM     27  N   UNL     1      51.239   1.369  17.930  0.00  0.00    +0.000 N 
ATOM     28  O   UNL     1      49.997   1.555  16.071  0.00  0.00    +0.000 OA
ATOM     29  H   UNL     1      51.643   1.709  18.788  0.00  0.00    +0.000 HD
ATOM     30  H   UNL     1      51.479   0.428  17.641  0.00  0.00    +0.000 HD
ENDBRANCH  24  26
ENDBRANCH  18  19
ENDBRANCH   5  17
TORSDOF 5
ENDMDL
MODEL 7
REMARK VINA RESULT:    -6.322      2.973      4.267
REMARK INTER + INTRA:          -9.177
REMARK INTER:                  -8.208
REMARK INTRA:                  -0.969
REMARK UNBOUND:                -1.008
REMARK  Name = 
REMARK  7 active torsions:
REMARK  status: ('A' for Active; 'I' for Inactive)
REMARK    1  A    between atoms: C_1  and  C_2
REMARK    2  A    between atoms: N_4  and  C_5
REMARK    3  A    between atoms: C_8  and  C_9
REMARK    4  A    between atoms: C_11  and  C_12
REMARK    5  A    between atoms: C_13  and  C_14
REMARK    6  A    between atoms: C_19  and  C_20
REMARK    7  A    between atoms: C_26  and  C_27
REMARK                            x       y       z     vdW  Elec       q    Type
REMARK                         _______ _______ _______ _____ _____    ______ ____
ROOT
ATOM      1  C   UNL     1      49.606   6.078  19.006  0.00  0.00    +0.000 A 
ATOM      2  C   UNL     1      50.418   4.963  19.201  0.00  0.00    +0.000 A 
ATOM      3  C   UNL     1      50.268   3.825  18.419  0.00  0.00    +0.000 A 
ATOM      4  C   UNL     1      49.315   3.778  17.384  0.00  0.00    +0.000 A 
ATOM      5  C   UNL     1      48.509   4.906  17.111  0.00  0.00    +0.000 A 
ATOM      6  C   UNL     1      48.647   6.006  17.980  0.00  0.00    +0.000 A 
ENDROOT
BRANCH   1  10
ATOM      7  C   UNL     1      47.293   9.193  19.336  0.00  0.00    +0.000 C 
ATOM      8  C   UNL     1      48.695   9.422  19.898  0.00  0.00    +0.000 C 
ATOM      9  C   UNL     1      49.772   8.550  19.218  0.00  0.00    +0.000 C 
ATOM     10  N   UNL     1      49.757   7.198  19.784  0.00  0.00    +0.000 N 
ATOM     11  C   UNL     1      49.892   7.154  21.240  0.00  0.00    +0.000 C 
ATOM     12  C   UNL     1      48.804   8.019  21.898  0.00  0.00    +0.000 C 
ATOM     13  C   UNL     1      47.442   7.334  21.926  0.00  0.00    +0.000 C 
ATOM     14  O   UNL     1      48.726   9.343  21.336  0.00  0.00    +0.000 OA
ENDBRANCH   1  10
BRANCH   4  15
ATOM     15  C   UNL     1      49.247   2.547  16.663  0.00  0.00    +0.000 C 
ATOM     16  N   UNL     1      49.184   1.582  16.001  0.00  0.00    +0.000 NA
ENDBRANCH   4  15
BRANCH   5  17
ATOM     17  C   UNL     1      47.514   5.028  16.003  0.00  0.00    +0.000 C 
ATOM     18  C   UNL     1      47.760   5.491  14.757  0.00  0.00    +0.000 C 
BRANCH  18  19
ATOM     19  C   UNL     1      46.770   5.615  13.671  0.00  0.00    +0.000 A 
ATOM     20  C   UNL     1      46.471   6.834  13.060  0.00  0.00    +0.000 A 
ATOM     21  C   UNL     1      45.599   6.861  11.977  0.00  0.00    +0.000 A 
ATOM     22  F   UNL     1      45.335   8.032  11.380  0.00  0.00    +0.000 F 
ATOM     23  C   UNL     1      45.010   5.703  11.479  0.00  0.00    +0.000 A 
ATOM     24  C   UNL     1      45.298   4.475  12.074  0.00  0.00    +0.000 A 
ATOM     25  C   UNL     1      46.184   4.440  13.164  0.00  0.00    +0.000 A 
BRANCH  24  26
ATOM     26  C   UNL     1      44.720   3.183  11.602  0.00  0.00    +0.000 C 
ATOM     27  N   UNL     1      43.970   2.443  12.472  0.00  0.00    +0.000 N 
ATOM     28  O   UNL     1      44.906   2.780  10.460  0.00  0.00    +0.000 OA
ATOM     29  H   UNL     1      43.770   2.681  13.430  0.00  0.00    +0.000 HD
ATOM     30  H   UNL     1      43.601   1.567  12.120  0.00  0.00    +0.000 HD
ENDBRANCH  24  26
ENDBRANCH  18  19
ENDBRANCH   5  17
TORSDOF 5
ENDMDL
MODEL 8
REMARK VINA RESULT:    -6.239      3.816      5.392
REMARK INTER + INTRA:          -9.070
REMARK INTER:                  -8.067
REMARK INTRA:                  -1.003
REMARK UNBOUND:                -1.008
REMARK  Name = 
REMARK  7 active torsions:
REMARK  status: ('A' for Active; 'I' for Inactive)
REMARK    1  A    between atoms: C_1  and  C_2
REMARK    2  A    between atoms: N_4  and  C_5
REMARK    3  A    between atoms: C_8  and  C_9
REMARK    4  A    between atoms: C_11  and  C_12
REMARK    5  A    between atoms: C_13  and  C_14
REMARK    6  A    between atoms: C_19  and  C_20
REMARK    7  A    between atoms: C_26  and  C_27
REMARK                            x       y       z     vdW  Elec       q    Type
REMARK                         _______ _______ _______ _____ _____    ______ ____
ROOT
ATOM      1  C   UNL     1      48.720  10.617  12.063  0.00  0.00    +0.000 A 
ATOM      2  C   UNL     1      48.174  11.898  12.033  0.00  0.00    +0.000 A 
ATOM      3  C   UNL     1      46.806  12.088  11.889  0.00  0.00    +0.000 A 
ATOM      4  C   UNL     1      45.927  10.991  11.803  0.00  0.00    +0.000 A 
ATOM      5  C   UNL     1      46.430   9.674  11.887  0.00  0.00    +0.000 A 
ATOM      6  C   UNL     1      47.829   9.534  11.957  0.00  0.00    +0.000 A 
ENDROOT
BRANCH   1  10
ATOM      7  C   UNL     1      50.660   7.982  14.173  0.00  0.00    +0.000 C 
ATOM      8  C   UNL     1      51.533   9.152  13.721  0.00  0.00    +0.000 C 
ATOM      9  C   UNL     1      50.736  10.457  13.510  0.00  0.00    +0.000 C 
ATOM     10  N   UNL     1      50.073  10.437  12.202  0.00  0.00    +0.000 N 
ATOM     11  C   UNL     1      50.972  10.185  11.076  0.00  0.00    +0.000 C 
ATOM     12  C   UNL     1      51.747   8.876  11.301  0.00  0.00    +0.000 C 
ATOM     13  C   UNL     1      50.908   7.636  11.010  0.00  0.00    +0.000 C 
ATOM     14  O   UNL     1      52.367   8.809  12.599  0.00  0.00    +0.000 OA
ENDBRANCH   1  10
BRANCH   4  15
ATOM     15  C   UNL     1      44.547  11.318  11.641  0.00  0.00    +0.000 C 
ATOM     16  N   UNL     1      43.396  11.512  11.544  0.00  0.00    +0.000 NA
ENDBRANCH   4  15
BRANCH   5  17
ATOM     17  C   UNL     1      45.615   8.421  11.888  0.00  0.00    +0.000 C 
ATOM     18  C   UNL     1      46.095   7.157  11.922  0.00  0.00    +0.000 C 
BRANCH  18  19
ATOM     19  C   UNL     1      45.283   5.926  11.916  0.00  0.00    +0.000 A 
ATOM     20  C   UNL     1      44.430   5.581  12.966  0.00  0.00    +0.000 A 
ATOM     21  C   UNL     1      43.621   4.456  12.850  0.00  0.00    +0.000 A 
ATOM     22  F   UNL     1      42.788   4.145  13.852  0.00  0.00    +0.000 F 
ATOM     23  C   UNL     1      43.635   3.656  11.712  0.00  0.00    +0.000 A 
ATOM     24  C   UNL     1      44.479   3.984  10.650  0.00  0.00    +0.000 A 
ATOM     25  C   UNL     1      45.293   5.125  10.759  0.00  0.00    +0.000 A 
BRANCH  24  26
ATOM     26  C   UNL     1      44.553   3.190   9.390  0.00  0.00    +0.000 C 
ATOM     27  N   UNL     1      44.222   3.797   8.211  0.00  0.00    +0.000 N 
ATOM     28  O   UNL     1      44.902   2.016   9.395  0.00  0.00    +0.000 OA
ATOM     29  H   UNL     1      43.913   4.750   8.104  0.00  0.00    +0.000 HD
ATOM     30  H   UNL     1      44.274   3.225   7.377  0.00  0.00    +0.000 HD
ENDBRANCH  24  26
ENDBRANCH  18  19
ENDBRANCH   5  17
TORSDOF 5
ENDMDL
MODEL 9
REMARK VINA RESULT:    -5.936      3.876      7.334
REMARK INTER + INTRA:          -8.678
REMARK INTER:                  -7.830
REMARK INTRA:                  -0.848
REMARK UNBOUND:                -1.008
REMARK  Name = 
REMARK  7 active torsions:
REMARK  status: ('A' for Active; 'I' for Inactive)
REMARK    1  A    between atoms: C_1  and  C_2
REMARK    2  A    between atoms: N_4  and  C_5
REMARK    3  A    between atoms: C_8  and  C_9
REMARK    4  A    between atoms: C_11  and  C_12
REMARK    5  A    between atoms: C_13  and  C_14
REMARK    6  A    between atoms: C_19  and  C_20
REMARK    7  A    between atoms: C_26  and  C_27
REMARK                            x       y       z     vdW  Elec       q    Type
REMARK                         _______ _______ _______ _____ _____    ______ ____
ROOT
ATOM      1  C   UNL     1      45.974   4.995  13.408  0.00  0.00    +0.000 A 
ATOM      2  C   UNL     1      46.606   4.566  14.572  0.00  0.00    +0.000 A 
ATOM      3  C   UNL     1      47.686   5.262  15.098  0.00  0.00    +0.000 A 
ATOM      4  C   UNL     1      48.152   6.443  14.488  0.00  0.00    +0.000 A 
ATOM      5  C   UNL     1      47.505   6.949  13.338  0.00  0.00    +0.000 A 
ATOM      6  C   UNL     1      46.464   6.166  12.802  0.00  0.00    +0.000 A 
ENDROOT
BRANCH   1  10
ATOM      7  C   UNL     1      42.985   6.277  11.267  0.00  0.00    +0.000 C 
ATOM      8  C   UNL     1      42.742   4.895  11.873  0.00  0.00    +0.000 C 
ATOM      9  C   UNL     1      43.519   4.664  13.186  0.00  0.00    +0.000 C 
ATOM     10  N   UNL     1      44.909   4.300  12.893  0.00  0.00    +0.000 N 
ATOM     11  C   UNL     1      45.054   3.157  11.991  0.00  0.00    +0.000 C 
ATOM     12  C   UNL     1      44.283   3.412  10.685  0.00  0.00    +0.000 C 
ATOM     13  C   UNL     1      45.021   4.353   9.739  0.00  0.00    +0.000 C 
ATOM     14  O   UNL     1      42.926   3.838  10.911  0.00  0.00    +0.000 OA
ENDBRANCH   1  10
BRANCH   4  15
ATOM     15  C   UNL     1      49.278   7.057  15.114  0.00  0.00    +0.000 C 
ATOM     16  N   UNL     1      50.251   7.503  15.591  0.00  0.00    +0.000 NA
ENDBRANCH   4  15
BRANCH   5  17
ATOM     17  C   UNL     1      47.837   8.223  12.632  0.00  0.00    +0.000 C 
ATOM     18  C   UNL     1      49.049   8.572  12.143  0.00  0.00    +0.000 C 
BRANCH  18  19
ATOM     19  C   UNL     1      49.369   9.835  11.452  0.00  0.00    +0.000 A 
ATOM     20  C   UNL     1      50.680  10.261  11.229  0.00  0.00    +0.000 A 
ATOM     21  C   UNL     1      50.909  11.413  10.486  0.00  0.00    +0.000 A 
ATOM     22  F   UNL     1      52.170  11.802  10.256  0.00  0.00    +0.000 F 
ATOM     23  C   UNL     1      49.865  12.163   9.953  0.00  0.00    +0.000 A 
ATOM     24  C   UNL     1      48.548  11.753  10.162  0.00  0.00    +0.000 A 
ATOM     25  C   UNL     1      48.311  10.585  10.907  0.00  0.00    +0.000 A 
BRANCH  24  26
ATOM     26  C   UNL     1      47.368  12.489   9.621  0.00  0.00    +0.000 C 
ATOM     27  N   UNL     1      46.389  12.888  10.488  0.00  0.00    +0.000 N 
ATOM     28  O   UNL     1      47.263  12.738   8.426  0.00  0.00    +0.000 OA
ATOM     29  H   UNL     1      46.377  12.721  11.481  0.00  0.00    +0.000 HD
ATOM     30  H   UNL     1      45.599  13.376  10.085  0.00  0.00    +0.000 HD
ENDBRANCH  24  26
ENDBRANCH  18  19
ENDBRANCH   5  17
TORSDOF 5
ENDMDL
