MODEL 1
REMARK VINA RESULT:    -8.324      0.000      0.000
REMARK INTER + INTRA:         -12.311
REMARK INTER:                 -11.243
REMARK INTRA:                  -1.068
REMARK UNBOUND:                -1.068
REMARK  Name = 
REMARK  6 active torsions:
REMARK  status: ('A' for Active; 'I' for Inactive)
REMARK    1  A    between atoms: C_2  and  C_19
REMARK    2  A    between atoms: N_3  and  C_4
REMARK    3  A    between atoms: C_4  and  C_5
REMARK    4  A    between atoms: C_8  and  C_9
REMARK    5  A    between atoms: C_9  and  O_10
REMARK    6  A    between atoms: O_10  and  C_11
REMARK                            x       y       z     vdW  Elec       q    Type
REMARK                         _______ _______ _______ _____ _____    ______ ____
ROOT
ATOM      1  O   UNL     1      49.525   6.868  13.791  0.00  0.00    +0.000 OA
ATOM      2  C   UNL     1      48.647   6.784  14.644  0.00  0.00    +0.000 C 
ATOM      3  N   UNL     1      47.333   7.078  14.388  0.00  0.00    +0.000 N 
ATOM      4  H   UNL     1      46.695   7.185  15.168  0.00  0.00    +0.000 HD
ENDROOT
BRANCH   2   5
ATOM      5  C   UNL     1      48.938   6.297  15.998  0.00  0.00    +0.000 A 
ATOM      6  C   UNL     1      49.720   7.056  16.858  0.00  0.00    +0.000 A 
ATOM      7  S   UNL     1      49.973   6.322  18.377  0.00  0.00    +0.000 S 
ATOM      8  C   UNL     1      49.009   4.985  17.952  0.00  0.00    +0.000 A 
ATOM      9  N   UNL     1      48.785   3.970  18.833  0.00  0.00    +0.000 NA
ATOM     10  C   UNL     1      48.004   3.045  18.391  0.00  0.00    +0.000 A 
ATOM     11  N   UNL     1      47.429   3.031  17.149  0.00  0.00    +0.000 N 
ATOM     12  C   UNL     1      47.688   3.990  16.202  0.00  0.00    +0.000 A 
ATOM     13  O   UNL     1      47.270   3.871  15.054  0.00  0.00    +0.000 OA
ATOM     14  C   UNL     1      48.524   5.082  16.662  0.00  0.00    +0.000 A 
ATOM     15  H   UNL     1      46.852   2.258  16.852  0.00  0.00    +0.000 HD
ENDBRANCH   2   5
BRANCH   3  16
ATOM     16  C   UNL     1      46.888   7.644  13.143  0.00  0.00    +0.000 C 
BRANCH  16  17
ATOM     17  C   UNL     1      46.210   6.609  12.282  0.00  0.00    +0.000 A 
ATOM     18  C   UNL     1      46.454   6.576  10.904  0.00  0.00    +0.000 A 
ATOM     19  C   UNL     1      45.834   5.623  10.095  0.00  0.00    +0.000 A 
ATOM     20  C   UNL     1      44.939   4.697  10.645  0.00  0.00    +0.000 A 
ATOM     21  C   UNL     1      44.687   4.736  12.023  0.00  0.00    +0.000 A 
ATOM     22  C   UNL     1      45.307   5.691  12.833  0.00  0.00    +0.000 A 
BRANCH  20  23
ATOM     23  C   UNL     1      44.235   3.693   9.763  0.00  0.00    +0.000 C 
BRANCH  23  24
ATOM     24  O   UNL     1      44.584   3.910   8.394  0.00  0.00    +0.000 OA
BRANCH  24  25
ATOM     25  C   UNL     1      45.515   2.987   7.953  0.00  0.00    +0.000 A 
ATOM     26  C   UNL     1      46.379   3.376   6.948  0.00  0.00    +0.000 A 
ATOM     27  C   UNL     1      47.333   2.462   6.513  0.00  0.00    +0.000 A 
ATOM     28  C   UNL     1      47.363   1.215   7.108  0.00  0.00    +0.000 A 
ATOM     29  N   UNL     1      46.504   0.858   8.083  0.00  0.00    +0.000 NA
ATOM     30  N   UNL     1      45.570   1.755   8.508  0.00  0.00    +0.000 NA
ENDBRANCH  24  25
ENDBRANCH  23  24
ENDBRANCH  20  23
ENDBRANCH  16  17
ENDBRANCH   3  16
TORSDOF 6
ENDMDL
MODEL 2
REMARK VINA RESULT:    -7.702      1.930      2.317
REMARK INTER + INTRA:         -11.471
REMARK INTER:                 -10.805
REMARK INTRA:                  -0.666
REMARK UNBOUND:                -1.068
REMARK  Name = 
REMARK  6 active torsions:
REMARK  status: ('A' for Active; 'I' for Inactive)
REMARK    1  A    between atoms: C_2  and  C_19
REMARK    2  A    between atoms: N_3  and  C_4
REMARK    3  A    between atoms: C_4  and  C_5
REMARK    4  A    between atoms: C_8  and  C_9
REMARK    5  A    between atoms: C_9  and  O_10
REMARK    6  A    between atoms: O_10  and  C_11
REMARK                            x       y       z     vdW  Elec       q    Type
REMARK                         _______ _______ _______ _____ _____    ______ ____
ROOT
ATOM      1  O   UNL     1      50.327   6.231  16.011  0.00  0.00    +0.000 OA
ATOM      2  C   UNL     1      49.176   6.558  16.283  0.00  0.00    +0.000 C 
ATOM      3  N   UNL     1      48.196   6.687  15.334  0.00  0.00    +0.000 N 
ATOM      4  H   UNL     1      47.329   7.148  15.585  0.00  0.00    +0.000 HD
ENDROOT
BRANCH   2   5
ATOM      5  C   UNL     1      48.750   6.776  17.671  0.00  0.00    +0.000 A 
ATOM      6  C   UNL     1      48.314   8.030  18.078  0.00  0.00    +0.000 A 
ATOM      7  S   UNL     1      47.884   8.100  19.727  0.00  0.00    +0.000 S 
ATOM      8  C   UNL     1      48.223   6.446  19.943  0.00  0.00    +0.000 A 
ATOM      9  N   UNL     1      48.039   5.841  21.149  0.00  0.00    +0.000 NA
ATOM     10  C   UNL     1      48.296   4.579  21.156  0.00  0.00    +0.000 A 
ATOM     11  N   UNL     1      48.728   3.860  20.074  0.00  0.00    +0.000 N 
ATOM     12  C   UNL     1      49.001   4.441  18.860  0.00  0.00    +0.000 A 
ATOM     13  O   UNL     1      49.522   3.795  17.955  0.00  0.00    +0.000 OA
ATOM     14  C   UNL     1      48.683   5.854  18.782  0.00  0.00    +0.000 A 
ATOM     15  H   UNL     1      48.944   2.878  20.154  0.00  0.00    +0.000 HD
ENDBRANCH   2   5
BRANCH   3  16
ATOM     16  C   UNL     1      48.459   6.590  13.923  0.00  0.00    +0.000 C 
BRANCH  16  17
ATOM     17  C   UNL     1      47.343   5.874  13.205  0.00  0.00    +0.000 A 
ATOM     18  C   UNL     1      46.733   6.466  12.093  0.00  0.00    +0.000 A 
ATOM     19  C   UNL     1      45.700   5.814  11.418  0.00  0.00    +0.000 A 
ATOM     20  C   UNL     1      45.239   4.567  11.857  0.00  0.00    +0.000 A 
ATOM     21  C   UNL     1      45.843   3.978  12.977  0.00  0.00    +0.000 A 
ATOM     22  C   UNL     1      46.878   4.631  13.653  0.00  0.00    +0.000 A 
BRANCH  20  23
ATOM     23  C   UNL     1      44.092   3.881  11.154  0.00  0.00    +0.000 C 
BRANCH  23  24
ATOM     24  O   UNL     1      43.978   4.364   9.813  0.00  0.00    +0.000 OA
BRANCH  24  25
ATOM     25  C   UNL     1      44.898   3.762   8.974  0.00  0.00    +0.000 A 
ATOM     26  C   UNL     1      45.091   2.400   9.103  0.00  0.00    +0.000 A 
ATOM     27  C   UNL     1      45.998   1.783   8.249  0.00  0.00    +0.000 A 
ATOM     28  C   UNL     1      46.658   2.565   7.319  0.00  0.00    +0.000 A 
ATOM     29  N   UNL     1      46.456   3.893   7.218  0.00  0.00    +0.000 NA
ATOM     30  N   UNL     1      45.566   4.497   8.056  0.00  0.00    +0.000 NA
ENDBRANCH  24  25
ENDBRANCH  23  24
ENDBRANCH  20  23
ENDBRANCH  16  17
ENDBRANCH   3  16
TORSDOF 6
ENDMDL
MODEL 3
REMARK VINA RESULT:    -7.475      2.559      4.486
REMARK INTER + INTRA:         -11.164
REMARK INTER:                 -10.101
REMARK INTRA:                  -1.063
REMARK UNBOUND:                -1.068
REMARK  Name = 
REMARK  6 active torsions:
REMARK  status: ('A' for Active; 'I' for Inactive)
REMARK    1  A    between atoms: C_2  and  C_19
REMARK    2  A    between atoms: N_3  and  C_4
REMARK    3  A    between atoms: C_4  and  C_5
REMARK    4  A    between atoms: C_8  and  C_9
REMARK    5  A    between atoms: C_9  and  O_10
REMARK    6  A    between atoms: O_10  and  C_11
REMARK                            x       y       z     vdW  Elec       q    Type
REMARK                         _______ _______ _______ _____ _____    ______ ____
ROOT
ATOM      1  O   UNL     1      49.698   6.529  15.232  0.00  0.00    +0.000 OA
ATOM      2  C   UNL     1      48.839   7.257  14.743  0.00  0.00    +0.000 C 
ATOM      3  N   UNL     1      47.620   6.792  14.327  0.00  0.00    +0.000 N 
ATOM      4  H   UNL     1      47.037   7.392  13.755  0.00  0.00    +0.000 HD
ENDROOT
BRANCH   2   5
ATOM      5  C   UNL     1      49.041   8.707  14.627  0.00  0.00    +0.000 A 
ATOM      6  C   UNL     1      49.171   9.486  15.769  0.00  0.00    +0.000 A 
ATOM      7  S   UNL     1      49.374  11.148  15.440  0.00  0.00    +0.000 S 
ATOM      8  C   UNL     1      49.339  10.876  13.760  0.00  0.00    +0.000 A 
ATOM      9  N   UNL     1      49.488  11.903  12.877  0.00  0.00    +0.000 NA
ATOM     10  C   UNL     1      49.482  11.546  11.640  0.00  0.00    +0.000 A 
ATOM     11  N   UNL     1      49.334  10.260  11.195  0.00  0.00    +0.000 N 
ATOM     12  C   UNL     1      49.104   9.205  12.043  0.00  0.00    +0.000 A 
ATOM     13  O   UNL     1      48.834   8.090  11.604  0.00  0.00    +0.000 OA
ATOM     14  C   UNL     1      49.148   9.543  13.453  0.00  0.00    +0.000 A 
ATOM     15  H   UNL     1      49.305  10.050  10.209  0.00  0.00    +0.000 HD
ENDBRANCH   2   5
BRANCH   3  16
ATOM     16  C   UNL     1      47.289   5.393  14.294  0.00  0.00    +0.000 C 
BRANCH  16  17
ATOM     17  C   UNL     1      46.467   5.053  13.077  0.00  0.00    +0.000 A 
ATOM     18  C   UNL     1      45.882   3.787  12.958  0.00  0.00    +0.000 A 
ATOM     19  C   UNL     1      45.116   3.460  11.837  0.00  0.00    +0.000 A 
ATOM     20  C   UNL     1      44.941   4.386  10.801  0.00  0.00    +0.000 A 
ATOM     21  C   UNL     1      45.536   5.650  10.914  0.00  0.00    +0.000 A 
ATOM     22  C   UNL     1      46.303   5.977  12.037  0.00  0.00    +0.000 A 
BRANCH  20  23
ATOM     23  C   UNL     1      44.150   4.017   9.568  0.00  0.00    +0.000 C 
BRANCH  23  24
ATOM     24  O   UNL     1      44.315   2.627   9.275  0.00  0.00    +0.000 OA
BRANCH  24  25
ATOM     25  C   UNL     1      45.387   2.407   8.430  0.00  0.00    +0.000 A 
ATOM     26  C   UNL     1      45.768   3.439   7.594  0.00  0.00    +0.000 A 
ATOM     27  C   UNL     1      46.860   3.234   6.756  0.00  0.00    +0.000 A 
ATOM     28  C   UNL     1      47.500   2.010   6.804  0.00  0.00    +0.000 A 
ATOM     29  N   UNL     1      47.104   1.017   7.625  0.00  0.00    +0.000 NA
ATOM     30  N   UNL     1      46.034   1.220   8.446  0.00  0.00    +0.000 NA
ENDBRANCH  24  25
ENDBRANCH  23  24
ENDBRANCH  20  23
ENDBRANCH  16  17
ENDBRANCH   3  16
TORSDOF 6
ENDMDL
MODEL 4
REMARK VINA RESULT:    -7.464      2.513      3.133
REMARK INTER + INTRA:         -11.149
REMARK INTER:                 -10.146
REMARK INTRA:                  -1.004
REMARK UNBOUND:                -1.068
REMARK  Name = 
REMARK  6 active torsions:
REMARK  status: ('A' for Active; 'I' for Inactive)
REMARK    1  A    between atoms: C_2  and  C_19
REMARK    2  A    between atoms: N_3  and  C_4
REMARK    3  A    between atoms: C_4  and  C_5
REMARK    4  A    between atoms: C_8  and  C_9
REMARK    5  A    between atoms: C_9  and  O_10
REMARK    6  A    between atoms: O_10  and  C_11
REMARK                            x       y       z     vdW  Elec       q    Type
REMARK                         _______ _______ _______ _____ _____    ______ ____
ROOT
ATOM      1  O   UNL     1      50.298   6.065  16.220  0.00  0.00    +0.000 OA
ATOM      2  C   UNL     1      49.161   6.286  16.626  0.00  0.00    +0.000 C 
ATOM      3  N   UNL     1      48.125   6.614  15.792  0.00  0.00    +0.000 N 
ATOM      4  H   UNL     1      47.269   6.978  16.194  0.00  0.00    +0.000 HD
ENDROOT
BRANCH   2   5
ATOM      5  C   UNL     1      48.817   6.151  18.046  0.00  0.00    +0.000 A 
ATOM      6  C   UNL     1      49.069   4.961  18.715  0.00  0.00    +0.000 A 
ATOM      7  S   UNL     1      48.582   4.980  20.349  0.00  0.00    +0.000 S 
ATOM      8  C   UNL     1      48.057   6.595  20.231  0.00  0.00    +0.000 A 
ATOM      9  N   UNL     1      47.539   7.248  21.308  0.00  0.00    +0.000 NA
ATOM     10  C   UNL     1      47.221   8.476  21.084  0.00  0.00    +0.000 A 
ATOM     11  N   UNL     1      47.364   9.117  19.882  0.00  0.00    +0.000 N 
ATOM     12  C   UNL     1      47.807   8.478  18.751  0.00  0.00    +0.000 A 
ATOM     13  O   UNL     1      47.788   9.041  17.660  0.00  0.00    +0.000 OA
ATOM     14  C   UNL     1      48.225   7.104  18.957  0.00  0.00    +0.000 A 
ATOM     15  H   UNL     1      47.065  10.073  19.763  0.00  0.00    +0.000 HD
ENDBRANCH   2   5
BRANCH   3  16
ATOM     16  C   UNL     1      48.304   6.867  14.387  0.00  0.00    +0.000 C 
BRANCH  16  17
ATOM     17  C   UNL     1      47.285   6.124  13.562  0.00  0.00    +0.000 A 
ATOM     18  C   UNL     1      46.770   6.704  12.397  0.00  0.00    +0.000 A 
ATOM     19  C   UNL     1      45.827   6.026  11.622  0.00  0.00    +0.000 A 
ATOM     20  C   UNL     1      45.363   4.763  12.011  0.00  0.00    +0.000 A 
ATOM     21  C   UNL     1      45.871   4.186  13.183  0.00  0.00    +0.000 A 
ATOM     22  C   UNL     1      46.815   4.865  13.959  0.00  0.00    +0.000 A 
BRANCH  20  23
ATOM     23  C   UNL     1      44.311   4.048  11.197  0.00  0.00    +0.000 C 
BRANCH  23  24
ATOM     24  O   UNL     1      44.257   4.592   9.876  0.00  0.00    +0.000 OA
BRANCH  24  25
ATOM     25  C   UNL     1      45.103   3.922   9.013  0.00  0.00    +0.000 A 
ATOM     26  C   UNL     1      45.171   2.546   9.118  0.00  0.00    +0.000 A 
ATOM     27  C   UNL     1      46.003   1.861   8.240  0.00  0.00    +0.000 A 
ATOM     28  C   UNL     1      46.718   2.594   7.311  0.00  0.00    +0.000 A 
ATOM     29  N   UNL     1      46.639   3.936   7.232  0.00  0.00    +0.000 NA
ATOM     30  N   UNL     1      45.822   4.606   8.094  0.00  0.00    +0.000 NA
ENDBRANCH  24  25
ENDBRANCH  23  24
ENDBRANCH  20  23
ENDBRANCH  16  17
ENDBRANCH   3  16
TORSDOF 6
ENDMDL
MODEL 5
REMARK VINA RESULT:    -7.251      2.684      4.034
REMARK INTER + INTRA:         -10.861
REMARK INTER:                 -10.044
REMARK INTRA:                  -0.818
REMARK UNBOUND:                -1.068
REMARK  Name = 
REMARK  6 active torsions:
REMARK  status: ('A' for Active; 'I' for Inactive)
REMARK    1  A    between atoms: C_2  and  C_19
REMARK    2  A    between atoms: N_3  and  C_4
REMARK    3  A    between atoms: C_4  and  C_5
REMARK    4  A    between atoms: C_8  and  C_9
REMARK    5  A    between atoms: C_9  and  O_10
REMARK    6  A    between atoms: O_10  and  C_11
REMARK                            x       y       z     vdW  Elec       q    Type
REMARK                         _______ _______ _______ _____ _____    ______ ____
ROOT
ATOM      1  O   UNL     1      49.552   6.187  15.691  0.00  0.00    +0.000 OA
ATOM      2  C   UNL     1      48.917   6.942  14.963  0.00  0.00    +0.000 C 
ATOM      3  N   UNL     1      47.734   6.584  14.371  0.00  0.00    +0.000 N 
ATOM      4  H   UNL     1      47.362   7.166  13.630  0.00  0.00    +0.000 HD
ENDROOT
BRANCH   2   5
ATOM      5  C   UNL     1      49.356   8.322  14.722  0.00  0.00    +0.000 A 
ATOM      6  C   UNL     1      50.130   8.623  13.609  0.00  0.00    +0.000 A 
ATOM      7  S   UNL     1      50.566  10.269  13.507  0.00  0.00    +0.000 S 
ATOM      8  C   UNL     1      49.698  10.644  14.923  0.00  0.00    +0.000 A 
ATOM      9  N   UNL     1      49.637  11.920  15.395  0.00  0.00    +0.000 NA
ATOM     10  C   UNL     1      48.912  12.063  16.450  0.00  0.00    +0.000 A 
ATOM     11  N   UNL     1      48.246  11.051  17.087  0.00  0.00    +0.000 N 
ATOM     12  C   UNL     1      48.341   9.739  16.695  0.00  0.00    +0.000 A 
ATOM     13  O   UNL     1      47.848   8.841  17.371  0.00  0.00    +0.000 OA
ATOM     14  C   UNL     1      49.107   9.527  15.481  0.00  0.00    +0.000 A 
ATOM     15  H   UNL     1      47.720  11.224  17.931  0.00  0.00    +0.000 HD
ENDBRANCH   2   5
BRANCH   3  16
ATOM     16  C   UNL     1      47.204   5.249  14.435  0.00  0.00    +0.000 C 
BRANCH  16  17
ATOM     17  C   UNL     1      46.396   4.921  13.205  0.00  0.00    +0.000 A 
ATOM     18  C   UNL     1      45.875   3.633  13.032  0.00  0.00    +0.000 A 
ATOM     19  C   UNL     1      45.124   3.317  11.899  0.00  0.00    +0.000 A 
ATOM     20  C   UNL     1      44.899   4.276  10.903  0.00  0.00    +0.000 A 
ATOM     21  C   UNL     1      45.429   5.562  11.071  0.00  0.00    +0.000 A 
ATOM     22  C   UNL     1      46.182   5.880  12.206  0.00  0.00    +0.000 A 
BRANCH  20  23
ATOM     23  C   UNL     1      44.124   3.922   9.656  0.00  0.00    +0.000 C 
BRANCH  23  24
ATOM     24  O   UNL     1      44.876   4.274   8.493  0.00  0.00    +0.000 OA
BRANCH  24  25
ATOM     25  C   UNL     1      45.695   3.238   8.082  0.00  0.00    +0.000 A 
ATOM     26  C   UNL     1      46.738   3.543   7.230  0.00  0.00    +0.000 A 
ATOM     27  C   UNL     1      47.580   2.510   6.828  0.00  0.00    +0.000 A 
ATOM     28  C   UNL     1      47.325   1.237   7.303  0.00  0.00    +0.000 A 
ATOM     29  N   UNL     1      46.296   0.965   8.129  0.00  0.00    +0.000 NA
ATOM     30  N   UNL     1      45.473   1.978   8.522  0.00  0.00    +0.000 NA
ENDBRANCH  24  25
ENDBRANCH  23  24
ENDBRANCH  20  23
ENDBRANCH  16  17
ENDBRANCH   3  16
TORSDOF 6
ENDMDL
MODEL 6
REMARK VINA RESULT:    -6.972      2.136      2.680
REMARK INTER + INTRA:         -10.485
REMARK INTER:                  -9.549
REMARK INTRA:                  -0.936
REMARK UNBOUND:                -1.068
REMARK  Name = 
REMARK  6 active torsions:
REMARK  status: ('A' for Active; 'I' for Inactive)
REMARK    1  A    between atoms: C_2  and  C_19
REMARK    2  A    between atoms: N_3  and  C_4
REMARK    3  A    between atoms: C_4  and  C_5
REMARK    4  A    between atoms: C_8  and  C_9
REMARK    5  A    between atoms: C_9  and  O_10
REMARK    6  A    between atoms: O_10  and  C_11
REMARK                            x       y       z     vdW  Elec       q    Type
REMARK                         _______ _______ _______ _____ _____    ______ ____
ROOT
ATOM      1  O   UNL     1      49.031   8.441  16.119  0.00  0.00    +0.000 OA
ATOM      2  C   UNL     1      48.805   7.235  16.119  0.00  0.00    +0.000 C 
ATOM      3  N   UNL     1      48.259   6.581  15.045  0.00  0.00    +0.000 N 
ATOM      4  H   UNL     1      47.913   5.637  15.172  0.00  0.00    +0.000 HD
ENDROOT
BRANCH   2   5
ATOM      5  C   UNL     1      49.167   6.388  17.263  0.00  0.00    +0.000 A 
ATOM      6  C   UNL     1      48.203   6.027  18.194  0.00  0.00    +0.000 A 
ATOM      7  S   UNL     1      48.810   5.064  19.464  0.00  0.00    +0.000 S 
ATOM      8  C   UNL     1      50.373   5.061  18.789  0.00  0.00    +0.000 A 
ATOM      9  N   UNL     1      51.395   4.382  19.381  0.00  0.00    +0.000 NA
ATOM     10  C   UNL     1      52.510   4.434  18.739  0.00  0.00    +0.000 A 
ATOM     11  N   UNL     1      52.708   5.106  17.563  0.00  0.00    +0.000 N 
ATOM     12  C   UNL     1      51.730   5.867  16.971  0.00  0.00    +0.000 A 
ATOM     13  O   UNL     1      51.982   6.570  15.996  0.00  0.00    +0.000 OA
ATOM     14  C   UNL     1      50.438   5.806  17.627  0.00  0.00    +0.000 A 
ATOM     15  H   UNL     1      53.617   5.135  17.126  0.00  0.00    +0.000 HD
ENDBRANCH   2   5
BRANCH   3  16
ATOM     16  C   UNL     1      47.773   7.268  13.879  0.00  0.00    +0.000 C 
BRANCH  16  17
ATOM     17  C   UNL     1      46.734   6.450  13.156  0.00  0.00    +0.000 A 
ATOM     18  C   UNL     1      45.798   7.080  12.327  0.00  0.00    +0.000 A 
ATOM     19  C   UNL     1      44.832   6.335  11.649  0.00  0.00    +0.000 A 
ATOM     20  C   UNL     1      44.767   4.945  11.807  0.00  0.00    +0.000 A 
ATOM     21  C   UNL     1      45.696   4.314  12.645  0.00  0.00    +0.000 A 
ATOM     22  C   UNL     1      46.664   5.061  13.324  0.00  0.00    +0.000 A 
BRANCH  20  23
ATOM     23  C   UNL     1      43.694   4.142  11.109  0.00  0.00    +0.000 C 
BRANCH  23  24
ATOM     24  O   UNL     1      43.656   4.477   9.719  0.00  0.00    +0.000 OA
BRANCH  24  25
ATOM     25  C   UNL     1      44.660   3.838   9.014  0.00  0.00    +0.000 A 
ATOM     26  C   UNL     1      44.808   2.477   9.197  0.00  0.00    +0.000 A 
ATOM     27  C   UNL     1      45.801   1.823   8.475  0.00  0.00    +0.000 A 
ATOM     28  C   UNL     1      46.585   2.570   7.616  0.00  0.00    +0.000 A 
ATOM     29  N   UNL     1      46.424   3.899   7.460  0.00  0.00    +0.000 NA
ATOM     30  N   UNL     1      45.450   4.538   8.168  0.00  0.00    +0.000 NA
ENDBRANCH  24  25
ENDBRANCH  23  24
ENDBRANCH  20  23
ENDBRANCH  16  17
ENDBRANCH   3  16
TORSDOF 6
ENDMDL
MODEL 7
REMARK VINA RESULT:    -6.722      3.308      7.885
REMARK INTER + INTRA:         -10.147
REMARK INTER:                  -8.978
REMARK INTRA:                  -1.169
REMARK UNBOUND:                -1.068
REMARK  Name = 
REMARK  6 active torsions:
REMARK  status: ('A' for Active; 'I' for Inactive)
REMARK    1  A    between atoms: C_2  and  C_19
REMARK    2  A    between atoms: N_3  and  C_4
REMARK    3  A    between atoms: C_4  and  C_5
REMARK    4  A    between atoms: C_8  and  C_9
REMARK    5  A    between atoms: C_9  and  O_10
REMARK    6  A    between atoms: O_10  and  C_11
REMARK                            x       y       z     vdW  Elec       q    Type
REMARK                         _______ _______ _______ _____ _____    ______ ____
ROOT
ATOM      1  O   UNL     1      45.290   7.978  11.638  0.00  0.00    +0.000 OA
ATOM      2  C   UNL     1      46.035   7.039  11.376  0.00  0.00    +0.000 C 
ATOM      3  N   UNL     1      47.367   7.035  11.696  0.00  0.00    +0.000 N 
ATOM      4  H   UNL     1      47.968   6.332  11.282  0.00  0.00    +0.000 HD
ENDROOT
BRANCH   2   5
ATOM      5  C   UNL     1      45.528   5.812  10.748  0.00  0.00    +0.000 A 
ATOM      6  C   UNL     1      45.812   5.543   9.416  0.00  0.00    +0.000 A 
ATOM      7  S   UNL     1      45.121   4.089   8.853  0.00  0.00    +0.000 S 
ATOM      8  C   UNL     1      44.456   3.747  10.382  0.00  0.00    +0.000 A 
ATOM      9  N   UNL     1      43.743   2.608  10.602  0.00  0.00    +0.000 NA
ATOM     10  C   UNL     1      43.335   2.462  11.815  0.00  0.00    +0.000 A 
ATOM     11  N   UNL     1      43.564   3.348  12.832  0.00  0.00    +0.000 N 
ATOM     12  C   UNL     1      44.209   4.545  12.641  0.00  0.00    +0.000 A 
ATOM     13  O   UNL     1      44.272   5.378  13.540  0.00  0.00    +0.000 OA
ATOM     14  C   UNL     1      44.732   4.741  11.302  0.00  0.00    +0.000 A 
ATOM     15  H   UNL     1      43.188   3.190  13.755  0.00  0.00    +0.000 HD
ENDBRANCH   2   5
BRANCH   3  16
ATOM     16  C   UNL     1      48.042   8.184  12.238  0.00  0.00    +0.000 C 
BRANCH  16  17
ATOM     17  C   UNL     1      48.400   7.976  13.687  0.00  0.00    +0.000 A 
ATOM     18  C   UNL     1      49.377   7.037  14.040  0.00  0.00    +0.000 A 
ATOM     19  C   UNL     1      49.719   6.835  15.377  0.00  0.00    +0.000 A 
ATOM     20  C   UNL     1      49.074   7.552  16.393  0.00  0.00    +0.000 A 
ATOM     21  C   UNL     1      48.089   8.485  16.041  0.00  0.00    +0.000 A 
ATOM     22  C   UNL     1      47.745   8.686  14.701  0.00  0.00    +0.000 A 
BRANCH  20  23
ATOM     23  C   UNL     1      49.413   7.303  17.843  0.00  0.00    +0.000 C 
BRANCH  23  24
ATOM     24  O   UNL     1      48.300   6.704  18.512  0.00  0.00    +0.000 OA
BRANCH  24  25
ATOM     25  C   UNL     1      48.123   5.387  18.129  0.00  0.00    +0.000 A 
ATOM     26  C   UNL     1      49.220   4.549  18.182  0.00  0.00    +0.000 A 
ATOM     27  C   UNL     1      49.046   3.218  17.818  0.00  0.00    +0.000 A 
ATOM     28  C   UNL     1      47.787   2.807  17.422  0.00  0.00    +0.000 A 
ATOM     29  N   UNL     1      46.734   3.647  17.373  0.00  0.00    +0.000 NA
ATOM     30  N   UNL     1      46.907   4.951  17.730  0.00  0.00    +0.000 NA
ENDBRANCH  24  25
ENDBRANCH  23  24
ENDBRANCH  20  23
ENDBRANCH  16  17
ENDBRANCH   3  16
TORSDOF 6
ENDMDL
MODEL 8
REMARK VINA RESULT:    -6.663      2.136      3.242
REMARK INTER + INTRA:         -10.068
REMARK INTER:                  -9.226
REMARK INTRA:                  -0.841
REMARK UNBOUND:                -1.068
REMARK  Name = 
REMARK  6 active torsions:
REMARK  status: ('A' for Active; 'I' for Inactive)
REMARK    1  A    between atoms: C_2  and  C_19
REMARK    2  A    between atoms: N_3  and  C_4
REMARK    3  A    between atoms: C_4  and  C_5
REMARK    4  A    between atoms: C_8  and  C_9
REMARK    5  A    between atoms: C_9  and  O_10
REMARK    6  A    between atoms: O_10  and  C_11
REMARK                            x       y       z     vdW  Elec       q    Type
REMARK                         _______ _______ _______ _____ _____    ______ ____
ROOT
ATOM      1  O   UNL     1      49.619   7.438  13.655  0.00  0.00    +0.000 OA
ATOM      2  C   UNL     1      48.850   7.419  14.611  0.00  0.00    +0.000 C 
ATOM      3  N   UNL     1      47.496   7.581  14.480  0.00  0.00    +0.000 N 
ATOM      4  H   UNL     1      46.941   7.756  15.309  0.00  0.00    +0.000 HD
ENDROOT
BRANCH   2   5
ATOM      5  C   UNL     1      49.330   7.155  15.973  0.00  0.00    +0.000 A 
ATOM      6  C   UNL     1      49.074   5.932  16.578  0.00  0.00    +0.000 A 
ATOM      7  S   UNL     1      49.686   5.815  18.166  0.00  0.00    +0.000 S 
ATOM      8  C   UNL     1      50.352   7.380  18.083  0.00  0.00    +0.000 A 
ATOM      9  N   UNL     1      51.051   7.904  19.128  0.00  0.00    +0.000 NA
ATOM     10  C   UNL     1      51.531   9.079  18.911  0.00  0.00    +0.000 A 
ATOM     11  N   UNL     1      51.376   9.788  17.751  0.00  0.00    +0.000 N 
ATOM     12  C   UNL     1      50.615   9.334  16.701  0.00  0.00    +0.000 A 
ATOM     13  O   UNL     1      50.379  10.054  15.736  0.00  0.00    +0.000 OA
ATOM     14  C   UNL     1      50.089   7.994  16.874  0.00  0.00    +0.000 A 
ATOM     15  H   UNL     1      51.750  10.720  17.655  0.00  0.00    +0.000 HD
ENDBRANCH   2   5
BRANCH   3  16
ATOM     16  C   UNL     1      46.869   7.929  13.232  0.00  0.00    +0.000 C 
BRANCH  16  17
ATOM     17  C   UNL     1      46.111   6.761  12.656  0.00  0.00    +0.000 A 
ATOM     18  C   UNL     1      46.408   5.458  13.072  0.00  0.00    +0.000 A 
ATOM     19  C   UNL     1      45.712   4.367  12.547  0.00  0.00    +0.000 A 
ATOM     20  C   UNL     1      44.720   4.557  11.578  0.00  0.00    +0.000 A 
ATOM     21  C   UNL     1      44.428   5.860  11.154  0.00  0.00    +0.000 A 
ATOM     22  C   UNL     1      45.126   6.953  11.678  0.00  0.00    +0.000 A 
BRANCH  20  23
ATOM     23  C   UNL     1      43.996   3.374  10.978  0.00  0.00    +0.000 C 
BRANCH  23  24
ATOM     24  O   UNL     1      43.726   3.614   9.594  0.00  0.00    +0.000 OA
BRANCH  24  25
ATOM     25  C   UNL     1      44.815   3.302   8.801  0.00  0.00    +0.000 A 
ATOM     26  C   UNL     1      45.279   2.001   8.829  0.00  0.00    +0.000 A 
ATOM     27  C   UNL     1      46.360   1.673   8.018  0.00  0.00    +0.000 A 
ATOM     28  C   UNL     1      46.911   2.666   7.229  0.00  0.00    +0.000 A 
ATOM     29  N   UNL     1      46.443   3.929   7.225  0.00  0.00    +0.000 NA
ATOM     30  N   UNL     1      45.384   4.249   8.021  0.00  0.00    +0.000 NA
ENDBRANCH  24  25
ENDBRANCH  23  24
ENDBRANCH  20  23
ENDBRANCH  16  17
ENDBRANCH   3  16
TORSDOF 6
ENDMDL
MODEL 9
REMARK VINA RESULT:    -6.465      4.152      5.918
REMARK INTER + INTRA:          -9.800
REMARK INTER:                  -8.958
REMARK INTRA:                  -0.843
REMARK UNBOUND:                -1.068
REMARK  Name = 
REMARK  6 active torsions:
REMARK  status: ('A' for Active; 'I' for Inactive)
REMARK    1  A    between atoms: C_2  and  C_19
REMARK    2  A    between atoms: N_3  and  C_4
REMARK    3  A    between atoms: C_4  and  C_5
REMARK    4  A    between atoms: C_8  and  C_9
REMARK    5  A    between atoms: C_9  and  O_10
REMARK    6  A    between atoms: O_10  and  C_11
REMARK                            x       y       z     vdW  Elec       q    Type
REMARK                         _______ _______ _______ _____ _____    ______ ____
ROOT
ATOM      1  O   UNL     1      50.965   8.113  13.762  0.00  0.00    +0.000 OA
ATOM      2  C   UNL     1      50.135   8.556  12.974  0.00  0.00    +0.000 C 
ATOM      3  N   UNL     1      48.822   8.165  12.980  0.00  0.00    +0.000 N 
ATOM      4  H   UNL     1      48.235   8.408  12.190  0.00  0.00    +0.000 HD
ENDROOT
BRANCH   2   5
ATOM      5  C   UNL     1      50.485   9.597  11.999  0.00  0.00    +0.000 A 
ATOM      6  C   UNL     1      49.977  10.881  12.138  0.00  0.00    +0.000 A 
ATOM      7  S   UNL     1      50.472  11.947  10.901  0.00  0.00    +0.000 S 
ATOM      8  C   UNL     1      51.417  10.739  10.162  0.00  0.00    +0.000 A 
ATOM      9  N   UNL     1      52.143  11.001   9.040  0.00  0.00    +0.000 NA
ATOM     10  C   UNL     1      52.841  10.006   8.614  0.00  0.00    +0.000 A 
ATOM     11  N   UNL     1      52.880   8.768   9.197  0.00  0.00    +0.000 N 
ATOM     12  C   UNL     1      52.106   8.435  10.282  0.00  0.00    +0.000 A 
ATOM     13  O   UNL     1      52.058   7.279  10.690  0.00  0.00    +0.000 OA
ATOM     14  C   UNL     1      51.335   9.533  10.832  0.00  0.00    +0.000 A 
ATOM     15  H   UNL     1      53.424   8.020   8.794  0.00  0.00    +0.000 HD
ENDBRANCH   2   5
BRANCH   3  16
ATOM     16  C   UNL     1      48.329   7.100  13.811  0.00  0.00    +0.000 C 
BRANCH  16  17
ATOM     17  C   UNL     1      47.255   6.309  13.109  0.00  0.00    +0.000 A 
ATOM     18  C   UNL     1      46.931   5.021  13.551  0.00  0.00    +0.000 A 
ATOM     19  C   UNL     1      45.937   4.279  12.911  0.00  0.00    +0.000 A 
ATOM     20  C   UNL     1      45.264   4.800  11.799  0.00  0.00    +0.000 A 
ATOM     21  C   UNL     1      45.595   6.085  11.349  0.00  0.00    +0.000 A 
ATOM     22  C   UNL     1      46.591   6.829  11.990  0.00  0.00    +0.000 A 
BRANCH  20  23
ATOM     23  C   UNL     1      44.220   3.980  11.079  0.00  0.00    +0.000 C 
BRANCH  23  24
ATOM     24  O   UNL     1      44.092   4.425   9.726  0.00  0.00    +0.000 OA
BRANCH  24  25
ATOM     25  C   UNL     1      45.027   3.826   8.902  0.00  0.00    +0.000 A 
ATOM     26  C   UNL     1      45.195   2.459   9.008  0.00  0.00    +0.000 A 
ATOM     27  C   UNL     1      46.118   1.845   8.168  0.00  0.00    +0.000 A 
ATOM     28  C   UNL     1      46.817   2.635   7.275  0.00  0.00    +0.000 A 
ATOM     29  N   UNL     1      46.639   3.969   7.196  0.00  0.00    +0.000 NA
ATOM     30  N   UNL     1      45.734   4.569   8.020  0.00  0.00    +0.000 NA
ENDBRANCH  24  25
ENDBRANCH  23  24
ENDBRANCH  20  23
ENDBRANCH  16  17
ENDBRANCH   3  16
TORSDOF 6
ENDMDL
