MODEL 1
REMARK VINA RESULT:    -8.952      0.000      0.000
REMARK INTER + INTRA:         -12.949
REMARK INTER:                 -12.092
REMARK INTRA:                  -0.857
REMARK UNBOUND:                -0.857
REMARK  Name = 
REMARK  6 active torsions:
REMARK  status: ('A' for Active; 'I' for Inactive)
REMARK    1  A    between atoms: C_2  and  C_4
REMARK    2  A    between atoms: N_8  and  C_9
REMARK    3  A    between atoms: C_9  and  C_10
REMARK    4  A    between atoms: C_10  and  C_11
REMARK    5  A    between atoms: C_15  and  O_16
REMARK    6  A    between atoms: O_16  and  C_17
REMARK                            x       y       z     vdW  Elec       q    Type
REMARK                         _______ _______ _______ _____ _____    ______ ____
ROOT
ATOM      1  C   UNL     1      46.416   2.493   7.780  0.00  0.00    +0.000 A 
ATOM      2  C   UNL     1      45.555   1.877   8.683  0.00  0.00    +0.000 A 
ATOM      3  C   UNL     1      44.664   2.664   9.411  0.00  0.00    +0.000 A 
ATOM      4  C   UNL     1      44.639   4.047   9.224  0.00  0.00    +0.000 A 
ATOM      5  N   UNL     1      43.695   4.858   9.832  0.00  0.00    +0.000 N 
ATOM      6  N   UNL     1      45.485   4.653   8.368  0.00  0.00    +0.000 NA
ATOM      7  C   UNL     1      46.355   3.876   7.679  0.00  0.00    +0.000 A 
ATOM      8  H   UNL     1      43.882   5.834   9.616  0.00  0.00    +0.000 HD
ENDROOT
BRANCH   1  10
ATOM      9  N   UNL     1      48.478   2.416   6.513  0.00  0.00    +0.000 N 
ATOM     10  C   UNL     1      47.377   1.733   6.961  0.00  0.00    +0.000 C 
ATOM     11  O   UNL     1      47.218   0.555   6.721  0.00  0.00    +0.000 OA
ATOM     12  H   UNL     1      49.184   1.862   6.035  0.00  0.00    +0.000 HD
ATOM     13  H   UNL     1      48.764   3.305   6.895  0.00  0.00    +0.000 HD
ENDBRANCH   1  10
BRANCH   5  14
ATOM     14  C   UNL     1      43.208   4.528  11.164  0.00  0.00    +0.000 C 
BRANCH  14  15
ATOM     15  C   UNL     1      43.472   5.669  12.152  0.00  0.00    +0.000 C 
BRANCH  15  16
ATOM     16  C   UNL     1      44.904   5.657  12.633  0.00  0.00    +0.000 A 
ATOM     17  C   UNL     1      45.778   6.695  12.280  0.00  0.00    +0.000 A 
ATOM     18  C   UNL     1      47.080   6.707  12.768  0.00  0.00    +0.000 A 
ATOM     19  C   UNL     1      47.521   5.694  13.625  0.00  0.00    +0.000 A 
ATOM     20  C   UNL     1      46.674   4.640  13.980  0.00  0.00    +0.000 A 
ATOM     21  C   UNL     1      45.370   4.634  13.484  0.00  0.00    +0.000 A 
BRANCH  20  22
ATOM     22  O   UNL     1      46.982   3.599  14.831  0.00  0.00    +0.000 OA
BRANCH  22  23
ATOM     23  C   UNL     1      47.810   3.830  15.993  0.00  0.00    +0.000 C 
ATOM     24  C   UNL     1      48.520   2.620  16.638  0.00  0.00    +0.000 C 
ATOM     25  C   UNL     1      48.019   3.069  18.018  0.00  0.00    +0.000 C 
ATOM     26  C   UNL     1      47.053   4.046  17.331  0.00  0.00    +0.000 C 
ENDBRANCH  22  23
ENDBRANCH  20  22
ENDBRANCH  15  16
ENDBRANCH  14  15
ENDBRANCH   5  14
TORSDOF 6
ENDMDL
MODEL 2
REMARK VINA RESULT:    -7.683      1.685      2.092
REMARK INTER + INTRA:         -11.235
REMARK INTER:                 -10.304
REMARK INTRA:                  -0.931
REMARK UNBOUND:                -0.857
REMARK  Name = 
REMARK  6 active torsions:
REMARK  status: ('A' for Active; 'I' for Inactive)
REMARK    1  A    between atoms: C_2  and  C_4
REMARK    2  A    between atoms: N_8  and  C_9
REMARK    3  A    between atoms: C_9  and  C_10
REMARK    4  A    between atoms: C_10  and  C_11
REMARK    5  A    between atoms: C_15  and  O_16
REMARK    6  A    between atoms: O_16  and  C_17
REMARK                            x       y       z     vdW  Elec       q    Type
REMARK                         _______ _______ _______ _____ _____    ______ ____
ROOT
ATOM      1  C   UNL     1      46.600   2.553   7.385  0.00  0.00    +0.000 A 
ATOM      2  C   UNL     1      46.234   3.821   7.825  0.00  0.00    +0.000 A 
ATOM      3  C   UNL     1      45.432   3.936   8.959  0.00  0.00    +0.000 A 
ATOM      4  C   UNL     1      45.015   2.791   9.640  0.00  0.00    +0.000 A 
ATOM      5  N   UNL     1      44.319   2.855  10.836  0.00  0.00    +0.000 N 
ATOM      6  N   UNL     1      45.347   1.560   9.207  0.00  0.00    +0.000 NA
ATOM      7  C   UNL     1      46.115   1.464   8.095  0.00  0.00    +0.000 A 
ATOM      8  H   UNL     1      44.058   1.920  11.139  0.00  0.00    +0.000 HD
ENDROOT
BRANCH   1  10
ATOM      9  N   UNL     1      47.211   3.140   5.116  0.00  0.00    +0.000 N 
ATOM     10  C   UNL     1      47.457   2.343   6.204  0.00  0.00    +0.000 C 
ATOM     11  O   UNL     1      48.355   1.527   6.206  0.00  0.00    +0.000 OA
ATOM     12  H   UNL     1      47.868   3.059   4.345  0.00  0.00    +0.000 HD
ATOM     13  H   UNL     1      46.655   3.979   5.168  0.00  0.00    +0.000 HD
ENDBRANCH   1  10
BRANCH   5  14
ATOM     14  C   UNL     1      43.378   3.942  11.069  0.00  0.00    +0.000 C 
BRANCH  14  15
ATOM     15  C   UNL     1      43.597   4.583  12.444  0.00  0.00    +0.000 C 
BRANCH  15  16
ATOM     16  C   UNL     1      44.929   5.293  12.511  0.00  0.00    +0.000 A 
ATOM     17  C   UNL     1      45.212   6.352  11.637  0.00  0.00    +0.000 A 
ATOM     18  C   UNL     1      46.417   7.037  11.737  0.00  0.00    +0.000 A 
ATOM     19  C   UNL     1      47.348   6.686  12.720  0.00  0.00    +0.000 A 
ATOM     20  C   UNL     1      47.096   5.624  13.594  0.00  0.00    +0.000 A 
ATOM     21  C   UNL     1      45.886   4.941  13.485  0.00  0.00    +0.000 A 
BRANCH  20  22
ATOM     22  O   UNL     1      47.921   5.198  14.615  0.00  0.00    +0.000 OA
BRANCH  22  23
ATOM     23  C   UNL     1      48.374   6.130  15.622  0.00  0.00    +0.000 C 
ATOM     24  C   UNL     1      49.710   6.868  15.389  0.00  0.00    +0.000 C 
ATOM     25  C   UNL     1      50.155   6.500  16.811  0.00  0.00    +0.000 C 
ATOM     26  C   UNL     1      48.995   5.498  16.898  0.00  0.00    +0.000 C 
ENDBRANCH  22  23
ENDBRANCH  20  22
ENDBRANCH  15  16
ENDBRANCH  14  15
ENDBRANCH   5  14
TORSDOF 6
ENDMDL
MODEL 3
REMARK VINA RESULT:    -7.320      3.338      8.166
REMARK INTER + INTRA:         -10.744
REMARK INTER:                 -10.213
REMARK INTRA:                  -0.532
REMARK UNBOUND:                -0.857
REMARK  Name = 
REMARK  6 active torsions:
REMARK  status: ('A' for Active; 'I' for Inactive)
REMARK    1  A    between atoms: C_2  and  C_4
REMARK    2  A    between atoms: N_8  and  C_9
REMARK    3  A    between atoms: C_9  and  C_10
REMARK    4  A    between atoms: C_10  and  C_11
REMARK    5  A    between atoms: C_15  and  O_16
REMARK    6  A    between atoms: O_16  and  C_17
REMARK                            x       y       z     vdW  Elec       q    Type
REMARK                         _______ _______ _______ _____ _____    ______ ____
ROOT
ATOM      1  C   UNL     1      48.529   4.364  17.243  0.00  0.00    +0.000 A 
ATOM      2  C   UNL     1      48.813   5.611  16.695  0.00  0.00    +0.000 A 
ATOM      3  C   UNL     1      48.165   5.995  15.522  0.00  0.00    +0.000 A 
ATOM      4  C   UNL     1      47.241   5.139  14.920  0.00  0.00    +0.000 A 
ATOM      5  N   UNL     1      46.484   5.521  13.825  0.00  0.00    +0.000 N 
ATOM      6  N   UNL     1      46.978   3.922  15.433  0.00  0.00    +0.000 NA
ATOM      7  C   UNL     1      47.627   3.556  16.565  0.00  0.00    +0.000 A 
ATOM      8  H   UNL     1      45.918   4.740  13.502  0.00  0.00    +0.000 HD
ENDROOT
BRANCH   1  10
ATOM      9  N   UNL     1      48.386   3.109  19.310  0.00  0.00    +0.000 N 
ATOM     10  C   UNL     1      49.159   3.887  18.487  0.00  0.00    +0.000 C 
ATOM     11  O   UNL     1      50.314   4.144  18.756  0.00  0.00    +0.000 OA
ATOM     12  H   UNL     1      48.857   2.702  20.114  0.00  0.00    +0.000 HD
ATOM     13  H   UNL     1      47.528   2.676  19.004  0.00  0.00    +0.000 HD
ENDBRANCH   1  10
BRANCH   5  14
ATOM     14  C   UNL     1      47.054   6.417  12.828  0.00  0.00    +0.000 C 
BRANCH  14  15
ATOM     15  C   UNL     1      45.965   7.021  11.935  0.00  0.00    +0.000 C 
BRANCH  15  16
ATOM     16  C   UNL     1      45.346   5.971  11.041  0.00  0.00    +0.000 A 
ATOM     17  C   UNL     1      44.134   5.364  11.397  0.00  0.00    +0.000 A 
ATOM     18  C   UNL     1      43.540   4.438  10.548  0.00  0.00    +0.000 A 
ATOM     19  C   UNL     1      44.140   4.119   9.325  0.00  0.00    +0.000 A 
ATOM     20  C   UNL     1      45.356   4.699   8.953  0.00  0.00    +0.000 A 
ATOM     21  C   UNL     1      45.945   5.625   9.813  0.00  0.00    +0.000 A 
BRANCH  20  22
ATOM     22  O   UNL     1      46.032   4.485   7.770  0.00  0.00    +0.000 OA
BRANCH  22  23
ATOM     23  C   UNL     1      45.961   3.199   7.113  0.00  0.00    +0.000 C 
ATOM     24  C   UNL     1      46.603   1.982   7.813  0.00  0.00    +0.000 C 
ATOM     25  C   UNL     1      47.309   1.608   6.503  0.00  0.00    +0.000 C 
ATOM     26  C   UNL     1      46.946   2.987   5.933  0.00  0.00    +0.000 C 
ENDBRANCH  22  23
ENDBRANCH  20  22
ENDBRANCH  15  16
ENDBRANCH  14  15
ENDBRANCH   5  14
TORSDOF 6
ENDMDL
MODEL 4
REMARK VINA RESULT:    -7.093      3.342      8.020
REMARK INTER + INTRA:         -10.438
REMARK INTER:                  -9.665
REMARK INTRA:                  -0.773
REMARK UNBOUND:                -0.857
REMARK  Name = 
REMARK  6 active torsions:
REMARK  status: ('A' for Active; 'I' for Inactive)
REMARK    1  A    between atoms: C_2  and  C_4
REMARK    2  A    between atoms: N_8  and  C_9
REMARK    3  A    between atoms: C_9  and  C_10
REMARK    4  A    between atoms: C_10  and  C_11
REMARK    5  A    between atoms: C_15  and  O_16
REMARK    6  A    between atoms: O_16  and  C_17
REMARK                            x       y       z     vdW  Elec       q    Type
REMARK                         _______ _______ _______ _____ _____    ______ ____
ROOT
ATOM      1  C   UNL     1      48.455   4.296  16.756  0.00  0.00    +0.000 A 
ATOM      2  C   UNL     1      47.357   3.839  16.035  0.00  0.00    +0.000 A 
ATOM      3  C   UNL     1      46.935   4.561  14.919  0.00  0.00    +0.000 A 
ATOM      4  C   UNL     1      47.616   5.717  14.536  0.00  0.00    +0.000 A 
ATOM      5  N   UNL     1      47.312   6.401  13.370  0.00  0.00    +0.000 N 
ATOM      6  N   UNL     1      48.666   6.178  15.242  0.00  0.00    +0.000 NA
ATOM      7  C   UNL     1      49.055   5.473  16.332  0.00  0.00    +0.000 A 
ATOM      8  H   UNL     1      47.878   7.243  13.302  0.00  0.00    +0.000 HD
ENDROOT
BRANCH   1  10
ATOM      9  N   UNL     1      50.327   3.362  17.978  0.00  0.00    +0.000 N 
ATOM     10  C   UNL     1      48.975   3.585  17.939  0.00  0.00    +0.000 C 
ATOM     11  O   UNL     1      48.246   3.241  18.846  0.00  0.00    +0.000 OA
ATOM     12  H   UNL     1      50.689   2.962  18.839  0.00  0.00    +0.000 HD
ATOM     13  H   UNL     1      50.978   3.845  17.378  0.00  0.00    +0.000 HD
ENDBRANCH   1  10
BRANCH   5  14
ATOM     14  C   UNL     1      45.934   6.457  12.903  0.00  0.00    +0.000 C 
BRANCH  14  15
ATOM     15  C   UNL     1      45.869   6.590  11.377  0.00  0.00    +0.000 C 
BRANCH  15  16
ATOM     16  C   UNL     1      45.384   5.310  10.736  0.00  0.00    +0.000 A 
ATOM     17  C   UNL     1      44.646   4.381  11.482  0.00  0.00    +0.000 A 
ATOM     18  C   UNL     1      44.156   3.230  10.876  0.00  0.00    +0.000 A 
ATOM     19  C   UNL     1      44.384   2.999   9.515  0.00  0.00    +0.000 A 
ATOM     20  C   UNL     1      45.131   3.903   8.753  0.00  0.00    +0.000 A 
ATOM     21  C   UNL     1      45.619   5.054   9.370  0.00  0.00    +0.000 A 
BRANCH  20  22
ATOM     22  O   UNL     1      45.404   3.800   7.405  0.00  0.00    +0.000 OA
BRANCH  22  23
ATOM     23  C   UNL     1      46.736   3.461   6.956  0.00  0.00    +0.000 C 
ATOM     24  C   UNL     1      46.945   3.144   5.460  0.00  0.00    +0.000 C 
ATOM     25  C   UNL     1      47.723   1.877   5.843  0.00  0.00    +0.000 C 
ATOM     26  C   UNL     1      47.215   2.022   7.285  0.00  0.00    +0.000 C 
ENDBRANCH  22  23
ENDBRANCH  20  22
ENDBRANCH  15  16
ENDBRANCH  14  15
ENDBRANCH   5  14
TORSDOF 6
ENDMDL
MODEL 5
REMARK VINA RESULT:    -6.949      2.012      3.543
REMARK INTER + INTRA:         -10.243
REMARK INTER:                  -9.984
REMARK INTRA:                  -0.259
REMARK UNBOUND:                -0.857
REMARK  Name = 
REMARK  6 active torsions:
REMARK  status: ('A' for Active; 'I' for Inactive)
REMARK    1  A    between atoms: C_2  and  C_4
REMARK    2  A    between atoms: N_8  and  C_9
REMARK    3  A    between atoms: C_9  and  C_10
REMARK    4  A    between atoms: C_10  and  C_11
REMARK    5  A    between atoms: C_15  and  O_16
REMARK    6  A    between atoms: O_16  and  C_17
REMARK                            x       y       z     vdW  Elec       q    Type
REMARK                         _______ _______ _______ _____ _____    ______ ____
ROOT
ATOM      1  C   UNL     1      46.631   2.697   7.309  0.00  0.00    +0.000 A 
ATOM      2  C   UNL     1      46.348   4.038   7.549  0.00  0.00    +0.000 A 
ATOM      3  C   UNL     1      45.543   4.373   8.638  0.00  0.00    +0.000 A 
ATOM      4  C   UNL     1      45.043   3.372   9.472  0.00  0.00    +0.000 A 
ATOM      5  N   UNL     1      44.341   3.660  10.631  0.00  0.00    +0.000 N 
ATOM      6  N   UNL     1      45.294   2.071   9.233  0.00  0.00    +0.000 NA
ATOM      7  C   UNL     1      46.065   1.761   8.162  0.00  0.00    +0.000 A 
ATOM      8  H   UNL     1      44.014   2.799  11.063  0.00  0.00    +0.000 HD
ENDROOT
BRANCH   1  10
ATOM      9  N   UNL     1      47.455   3.028   5.056  0.00  0.00    +0.000 N 
ATOM     10  C   UNL     1      47.483   2.258   6.190  0.00  0.00    +0.000 C 
ATOM     11  O   UNL     1      48.197   1.282   6.278  0.00  0.00    +0.000 OA
ATOM     12  H   UNL     1      48.119   2.777   4.328  0.00  0.00    +0.000 HD
ATOM     13  H   UNL     1      47.077   3.963   5.039  0.00  0.00    +0.000 HD
ENDBRANCH   1  10
BRANCH   5  14
ATOM     14  C   UNL     1      43.474   4.829  10.682  0.00  0.00    +0.000 C 
BRANCH  14  15
ATOM     15  C   UNL     1      44.255   6.084  11.087  0.00  0.00    +0.000 C 
BRANCH  15  16
ATOM     16  C   UNL     1      45.298   5.766  12.134  0.00  0.00    +0.000 A 
ATOM     17  C   UNL     1      44.979   4.943  13.223  0.00  0.00    +0.000 A 
ATOM     18  C   UNL     1      45.954   4.610  14.155  0.00  0.00    +0.000 A 
ATOM     19  C   UNL     1      47.263   5.079  14.004  0.00  0.00    +0.000 A 
ATOM     20  C   UNL     1      47.603   5.913  12.935  0.00  0.00    +0.000 A 
ATOM     21  C   UNL     1      46.618   6.244  12.006  0.00  0.00    +0.000 A 
BRANCH  20  22
ATOM     22  O   UNL     1      48.857   6.420  12.665  0.00  0.00    +0.000 OA
BRANCH  22  23
ATOM     23  C   UNL     1      49.130   7.826  12.855  0.00  0.00    +0.000 C 
ATOM     24  C   UNL     1      49.383   8.699  11.607  0.00  0.00    +0.000 C 
ATOM     25  C   UNL     1      50.635   9.283  12.275  0.00  0.00    +0.000 C 
ATOM     26  C   UNL     1      50.563   8.178  13.338  0.00  0.00    +0.000 C 
ENDBRANCH  22  23
ENDBRANCH  20  22
ENDBRANCH  15  16
ENDBRANCH  14  15
ENDBRANCH   5  14
TORSDOF 6
ENDMDL
MODEL 6
REMARK VINA RESULT:    -6.898      4.263      8.345
REMARK INTER + INTRA:         -10.175
REMARK INTER:                  -9.616
REMARK INTRA:                  -0.560
REMARK UNBOUND:                -0.857
REMARK  Name = 
REMARK  6 active torsions:
REMARK  status: ('A' for Active; 'I' for Inactive)
REMARK    1  A    between atoms: C_2  and  C_4
REMARK    2  A    between atoms: N_8  and  C_9
REMARK    3  A    between atoms: C_9  and  C_10
REMARK    4  A    between atoms: C_10  and  C_11
REMARK    5  A    between atoms: C_15  and  O_16
REMARK    6  A    between atoms: O_16  and  C_17
REMARK                            x       y       z     vdW  Elec       q    Type
REMARK                         _______ _______ _______ _____ _____    ______ ____
ROOT
ATOM      1  C   UNL     1      50.981   3.051  17.695  0.00  0.00    +0.000 A 
ATOM      2  C   UNL     1      50.264   4.243  17.722  0.00  0.00    +0.000 A 
ATOM      3  C   UNL     1      49.059   4.322  17.026  0.00  0.00    +0.000 A 
ATOM      4  C   UNL     1      48.584   3.213  16.323  0.00  0.00    +0.000 A 
ATOM      5  N   UNL     1      47.339   3.202  15.716  0.00  0.00    +0.000 N 
ATOM      6  N   UNL     1      49.283   2.064  16.274  0.00  0.00    +0.000 NA
ATOM      7  C   UNL     1      50.460   2.008  16.944  0.00  0.00    +0.000 A 
ATOM      8  H   UNL     1      47.206   2.330  15.209  0.00  0.00    +0.000 HD
ENDROOT
BRANCH   1  10
ATOM      9  N   UNL     1      52.804   1.623  18.405  0.00  0.00    +0.000 N 
ATOM     10  C   UNL     1      52.255   2.879  18.416  0.00  0.00    +0.000 C 
ATOM     11  O   UNL     1      52.806   3.809  18.966  0.00  0.00    +0.000 OA
ATOM     12  H   UNL     1      53.729   1.535  18.817  0.00  0.00    +0.000 HD
ATOM     13  H   UNL     1      52.511   0.904  17.761  0.00  0.00    +0.000 HD
ENDBRANCH   1  10
BRANCH   5  14
ATOM     14  C   UNL     1      46.806   4.426  15.134  0.00  0.00    +0.000 C 
BRANCH  14  15
ATOM     15  C   UNL     1      46.962   4.430  13.609  0.00  0.00    +0.000 C 
BRANCH  15  16
ATOM     16  C   UNL     1      45.622   4.308  12.921  0.00  0.00    +0.000 A 
ATOM     17  C   UNL     1      44.554   5.133  13.301  0.00  0.00    +0.000 A 
ATOM     18  C   UNL     1      43.339   5.055  12.631  0.00  0.00    +0.000 A 
ATOM     19  C   UNL     1      43.178   4.165  11.564  0.00  0.00    +0.000 A 
ATOM     20  C   UNL     1      44.223   3.320  11.176  0.00  0.00    +0.000 A 
ATOM     21  C   UNL     1      45.437   3.404  11.855  0.00  0.00    +0.000 A 
BRANCH  20  22
ATOM     22  O   UNL     1      44.196   2.420  10.131  0.00  0.00    +0.000 OA
BRANCH  22  23
ATOM     23  C   UNL     1      44.527   2.850   8.791  0.00  0.00    +0.000 C 
ATOM     24  C   UNL     1      45.821   2.307   8.147  0.00  0.00    +0.000 C 
ATOM     25  C   UNL     1      46.209   3.734   7.736  0.00  0.00    +0.000 C 
ATOM     26  C   UNL     1      45.116   4.281   8.666  0.00  0.00    +0.000 C 
ENDBRANCH  22  23
ENDBRANCH  20  22
ENDBRANCH  15  16
ENDBRANCH  14  15
ENDBRANCH   5  14
TORSDOF 6
ENDMDL
MODEL 7
REMARK VINA RESULT:    -6.457      4.054      7.624
REMARK INTER + INTRA:          -9.579
REMARK INTER:                  -8.517
REMARK INTRA:                  -1.062
REMARK UNBOUND:                -0.857
REMARK  Name = 
REMARK  6 active torsions:
REMARK  status: ('A' for Active; 'I' for Inactive)
REMARK    1  A    between atoms: C_2  and  C_4
REMARK    2  A    between atoms: N_8  and  C_9
REMARK    3  A    between atoms: C_9  and  C_10
REMARK    4  A    between atoms: C_10  and  C_11
REMARK    5  A    between atoms: C_15  and  O_16
REMARK    6  A    between atoms: O_16  and  C_17
REMARK                            x       y       z     vdW  Elec       q    Type
REMARK                         _______ _______ _______ _____ _____    ______ ____
ROOT
ATOM      1  C   UNL     1      43.921  10.795  11.260  0.00  0.00    +0.000 A 
ATOM      2  C   UNL     1      43.752   9.428  11.069  0.00  0.00    +0.000 A 
ATOM      3  C   UNL     1      44.790   8.564  11.418  0.00  0.00    +0.000 A 
ATOM      4  C   UNL     1      45.972   9.074  11.958  0.00  0.00    +0.000 A 
ATOM      5  N   UNL     1      46.982   8.253  12.431  0.00  0.00    +0.000 N 
ATOM      6  N   UNL     1      46.151  10.398  12.125  0.00  0.00    +0.000 NA
ATOM      7  C   UNL     1      45.139  11.225  11.767  0.00  0.00    +0.000 A 
ATOM      8  H   UNL     1      47.777   8.813  12.728  0.00  0.00    +0.000 HD
ENDROOT
BRANCH   1  10
ATOM      9  N   UNL     1      42.287  11.661   9.696  0.00  0.00    +0.000 N 
ATOM     10  C   UNL     1      42.870  11.774  10.931  0.00  0.00    +0.000 C 
ATOM     11  O   UNL     1      42.516  12.620  11.726  0.00  0.00    +0.000 OA
ATOM     12  H   UNL     1      41.497  12.274   9.515  0.00  0.00    +0.000 HD
ATOM     13  H   UNL     1      42.376  10.835   9.124  0.00  0.00    +0.000 HD
ENDBRANCH   1  10
BRANCH   5  14
ATOM     14  C   UNL     1      47.243   6.977  11.778  0.00  0.00    +0.000 C 
BRANCH  14  15
ATOM     15  C   UNL     1      46.878   5.800  12.690  0.00  0.00    +0.000 C 
BRANCH  15  16
ATOM     16  C   UNL     1      45.626   5.103  12.209  0.00  0.00    +0.000 A 
ATOM     17  C   UNL     1      44.693   4.609  13.130  0.00  0.00    +0.000 A 
ATOM     18  C   UNL     1      43.518   4.015  12.684  0.00  0.00    +0.000 A 
ATOM     19  C   UNL     1      43.252   3.921  11.314  0.00  0.00    +0.000 A 
ATOM     20  C   UNL     1      44.174   4.393  10.374  0.00  0.00    +0.000 A 
ATOM     21  C   UNL     1      45.351   4.985  10.831  0.00  0.00    +0.000 A 
BRANCH  20  22
ATOM     22  O   UNL     1      44.019   4.378   9.004  0.00  0.00    +0.000 OA
BRANCH  22  23
ATOM     23  C   UNL     1      44.507   3.261   8.227  0.00  0.00    +0.000 C 
ATOM     24  C   UNL     1      44.957   1.989   8.978  0.00  0.00    +0.000 C 
ATOM     25  C   UNL     1      46.254   1.970   8.156  0.00  0.00    +0.000 C 
ATOM     26  C   UNL     1      45.953   3.398   7.679  0.00  0.00    +0.000 C 
ENDBRANCH  22  23
ENDBRANCH  20  22
ENDBRANCH  15  16
ENDBRANCH  14  15
ENDBRANCH   5  14
TORSDOF 6
ENDMDL
MODEL 8
REMARK VINA RESULT:    -6.169      2.089      3.193
REMARK INTER + INTRA:          -9.190
REMARK INTER:                  -8.070
REMARK INTRA:                  -1.120
REMARK UNBOUND:                -0.857
REMARK  Name = 
REMARK  6 active torsions:
REMARK  status: ('A' for Active; 'I' for Inactive)
REMARK    1  A    between atoms: C_2  and  C_4
REMARK    2  A    between atoms: N_8  and  C_9
REMARK    3  A    between atoms: C_9  and  C_10
REMARK    4  A    between atoms: C_10  and  C_11
REMARK    5  A    between atoms: C_15  and  O_16
REMARK    6  A    between atoms: O_16  and  C_17
REMARK                            x       y       z     vdW  Elec       q    Type
REMARK                         _______ _______ _______ _____ _____    ______ ____
ROOT
ATOM      1  C   UNL     1      44.887   4.077   9.449  0.00  0.00    +0.000 A 
ATOM      2  C   UNL     1      45.802   5.125   9.473  0.00  0.00    +0.000 A 
ATOM      3  C   UNL     1      45.585   6.190  10.347  0.00  0.00    +0.000 A 
ATOM      4  C   UNL     1      44.470   6.190  11.186  0.00  0.00    +0.000 A 
ATOM      5  N   UNL     1      44.274   7.162  12.153  0.00  0.00    +0.000 N 
ATOM      6  N   UNL     1      43.568   5.191  11.152  0.00  0.00    +0.000 NA
ATOM      7  C   UNL     1      43.785   4.170  10.287  0.00  0.00    +0.000 A 
ATOM      8  H   UNL     1      43.379   7.019  12.615  0.00  0.00    +0.000 HD
ENDROOT
BRANCH   1  10
ATOM      9  N   UNL     1      44.821   1.678   9.126  0.00  0.00    +0.000 N 
ATOM     10  C   UNL     1      45.049   2.908   8.566  0.00  0.00    +0.000 C 
ATOM     11  O   UNL     1      45.340   3.030   7.395  0.00  0.00    +0.000 OA
ATOM     12  H   UNL     1      44.836   0.886   8.489  0.00  0.00    +0.000 HD
ATOM     13  H   UNL     1      44.343   1.558  10.006  0.00  0.00    +0.000 HD
ENDBRANCH   1  10
BRANCH   5  14
ATOM     14  C   UNL     1      44.709   8.529  11.904  0.00  0.00    +0.000 C 
BRANCH  14  15
ATOM     15  C   UNL     1      45.662   9.018  13.001  0.00  0.00    +0.000 C 
BRANCH  15  16
ATOM     16  C   UNL     1      47.012   8.346  12.893  0.00  0.00    +0.000 A 
ATOM     17  C   UNL     1      47.862   8.635  11.817  0.00  0.00    +0.000 A 
ATOM     18  C   UNL     1      49.124   8.056  11.748  0.00  0.00    +0.000 A 
ATOM     19  C   UNL     1      49.559   7.194  12.760  0.00  0.00    +0.000 A 
ATOM     20  C   UNL     1      48.724   6.878  13.836  0.00  0.00    +0.000 A 
ATOM     21  C   UNL     1      47.459   7.462  13.895  0.00  0.00    +0.000 A 
BRANCH  20  22
ATOM     22  O   UNL     1      49.044   6.063  14.903  0.00  0.00    +0.000 OA
BRANCH  22  23
ATOM     23  C   UNL     1      48.004   5.561  15.773  0.00  0.00    +0.000 C 
ATOM     24  C   UNL     1      48.422   4.832  17.068  0.00  0.00    +0.000 C 
ATOM     25  C   UNL     1      47.449   3.692  16.733  0.00  0.00    +0.000 C 
ATOM     26  C   UNL     1      47.308   4.253  15.311  0.00  0.00    +0.000 C 
ENDBRANCH  22  23
ENDBRANCH  20  22
ENDBRANCH  15  16
ENDBRANCH  14  15
ENDBRANCH   5  14
TORSDOF 6
ENDMDL
MODEL 9
REMARK VINA RESULT:    -6.070      3.179      4.929
REMARK INTER + INTRA:          -9.057
REMARK INTER:                  -7.981
REMARK INTRA:                  -1.075
REMARK UNBOUND:                -0.857
REMARK  Name = 
REMARK  6 active torsions:
REMARK  status: ('A' for Active; 'I' for Inactive)
REMARK    1  A    between atoms: C_2  and  C_4
REMARK    2  A    between atoms: N_8  and  C_9
REMARK    3  A    between atoms: C_9  and  C_10
REMARK    4  A    between atoms: C_10  and  C_11
REMARK    5  A    between atoms: C_15  and  O_16
REMARK    6  A    between atoms: O_16  and  C_17
REMARK                            x       y       z     vdW  Elec       q    Type
REMARK                         _______ _______ _______ _____ _____    ______ ____
ROOT
ATOM      1  C   UNL     1      45.108   4.317  11.800  0.00  0.00    +0.000 A 
ATOM      2  C   UNL     1      45.833   4.365  12.987  0.00  0.00    +0.000 A 
ATOM      3  C   UNL     1      46.743   5.403  13.181  0.00  0.00    +0.000 A 
ATOM      4  C   UNL     1      46.911   6.379  12.197  0.00  0.00    +0.000 A 
ATOM      5  N   UNL     1      47.711   7.492  12.391  0.00  0.00    +0.000 N 
ATOM      6  N   UNL     1      46.230   6.327  11.037  0.00  0.00    +0.000 NA
ATOM      7  C   UNL     1      45.360   5.304  10.857  0.00  0.00    +0.000 A 
ATOM      8  H   UNL     1      47.748   8.048  11.540  0.00  0.00    +0.000 HD
ENDROOT
BRANCH   1  10
ATOM      9  N   UNL     1      43.774   2.448  12.569  0.00  0.00    +0.000 N 
ATOM     10  C   UNL     1      44.117   3.263  11.522  0.00  0.00    +0.000 C 
ATOM     11  O   UNL     1      43.607   3.142  10.428  0.00  0.00    +0.000 OA
ATOM     12  H   UNL     1      43.018   1.790  12.396  0.00  0.00    +0.000 HD
ATOM     13  H   UNL     1      43.982   2.676  13.530  0.00  0.00    +0.000 HD
ENDBRANCH   1  10
BRANCH   5  14
ATOM     14  C   UNL     1      48.921   7.384  13.195  0.00  0.00    +0.000 C 
BRANCH  14  15
ATOM     15  C   UNL     1      49.168   8.662  14.004  0.00  0.00    +0.000 C 
BRANCH  15  16
ATOM     16  C   UNL     1      48.880   8.445  15.471  0.00  0.00    +0.000 A 
ATOM     17  C   UNL     1      48.287   9.461  16.234  0.00  0.00    +0.000 A 
ATOM     18  C   UNL     1      47.975   9.240  17.570  0.00  0.00    +0.000 A 
ATOM     19  C   UNL     1      48.236   7.999  18.158  0.00  0.00    +0.000 A 
ATOM     20  C   UNL     1      48.841   6.974  17.424  0.00  0.00    +0.000 A 
ATOM     21  C   UNL     1      49.152   7.205  16.085  0.00  0.00    +0.000 A 
BRANCH  20  22
ATOM     22  O   UNL     1      49.128   5.705  17.882  0.00  0.00    +0.000 OA
BRANCH  22  23
ATOM     23  C   UNL     1      48.666   4.546  17.151  0.00  0.00    +0.000 C 
ATOM     24  C   UNL     1      47.150   4.254  17.123  0.00  0.00    +0.000 C 
ATOM     25  C   UNL     1      47.430   2.792  17.498  0.00  0.00    +0.000 C 
ATOM     26  C   UNL     1      48.873   3.177  17.854  0.00  0.00    +0.000 C 
ENDBRANCH  22  23
ENDBRANCH  20  22
ENDBRANCH  15  16
ENDBRANCH  14  15
ENDBRANCH   5  14
TORSDOF 6
ENDMDL
