MODEL 1
REMARK VINA RESULT:    -7.937      0.000      0.000
REMARK INTER + INTRA:         -12.084
REMARK INTER:                 -10.953
REMARK INTRA:                  -1.131
REMARK UNBOUND:                -1.131
REMARK  Name = 
REMARK  7 active torsions:
REMARK  status: ('A' for Active; 'I' for Inactive)
REMARK    1  A    between atoms: N_1  and  S_2
REMARK    2  A    between atoms: S_2  and  C_5
REMARK    3  A    between atoms: C_8  and  O_9
REMARK    4  A    between atoms: O_9  and  C_10
REMARK    5  A    between atoms: C_10  and  C_11
REMARK    6  A    between atoms: C_11  and  C_12
REMARK    7  A    between atoms: C_16  and  C_17
REMARK                            x       y       z     vdW  Elec       q    Type
REMARK                         _______ _______ _______ _____ _____    ______ ____
ROOT
ATOM      1  C   UNL     1      45.516   7.371  12.527  0.00  0.00    +0.000 C 
ENDROOT
BRANCH   1   2
ATOM      2  O   UNL     1      46.830   6.802  12.496  0.00  0.00    +0.000 OA
BRANCH   2   6
ATOM      3  C   UNL     1      47.824   4.551  15.870  0.00  0.00    +0.000 A 
ATOM      4  C   UNL     1      48.428   5.797  15.712  0.00  0.00    +0.000 A 
ATOM      5  C   UNL     1      48.115   6.575  14.592  0.00  0.00    +0.000 A 
ATOM      6  C   UNL     1      47.204   6.118  13.630  0.00  0.00    +0.000 A 
ATOM      7  C   UNL     1      46.611   4.864  13.800  0.00  0.00    +0.000 A 
ATOM      8  C   UNL     1      46.923   4.075  14.913  0.00  0.00    +0.000 A 
BRANCH   3   9
ATOM      9  S   UNL     1      48.260   3.515  17.236  0.00  0.00    +0.000 S 
ATOM     10  O   UNL     1      48.685   4.337  18.342  0.00  0.00    +0.000 OA
ATOM     11  O   UNL     1      49.052   2.402  16.751  0.00  0.00    +0.000 OA
BRANCH   9  12
ATOM     12  N   UNL     1      46.775   2.853  17.673  0.00  0.00    +0.000 NA
ATOM     13  H   UNL     1      46.380   2.378  16.863  0.00  0.00    +0.000 HD
ATOM     14  H   UNL     1      46.165   3.572  18.052  0.00  0.00    +0.000 HD
ENDBRANCH   9  12
ENDBRANCH   3   9
ENDBRANCH   2   6
ENDBRANCH   1   2
BRANCH   1  15
ATOM     15  C   UNL     1      44.790   7.149  11.197  0.00  0.00    +0.000 C 
BRANCH  15  16
ATOM     16  C   UNL     1      44.584   5.673  10.923  0.00  0.00    +0.000 A 
ATOM     17  C   UNL     1      43.605   4.936  11.600  0.00  0.00    +0.000 A 
ATOM     18  C   UNL     1      43.368   3.601  11.272  0.00  0.00    +0.000 A 
ATOM     19  C   UNL     1      44.086   2.996  10.243  0.00  0.00    +0.000 A 
ATOM     20  C   UNL     1      45.063   3.706   9.529  0.00  0.00    +0.000 A 
ATOM     21  C   UNL     1      45.318   5.039   9.912  0.00  0.00    +0.000 A 
BRANCH  20  22
ATOM     22  C   UNL     1      45.748   3.092   8.378  0.00  0.00    +0.000 A 
ATOM     23  C   UNL     1      46.151   1.758   8.373  0.00  0.00    +0.000 A 
ATOM     24  C   UNL     1      46.851   1.258   7.284  0.00  0.00    +0.000 A 
ATOM     25  C   UNL     1      47.133   2.097   6.219  0.00  0.00    +0.000 A 
ATOM     26  C   UNL     1      46.700   3.411   6.286  0.00  0.00    +0.000 A 
ATOM     27  N   UNL     1      46.011   3.919   7.331  0.00  0.00    +0.000 NA
ENDBRANCH  20  22
ENDBRANCH  15  16
ENDBRANCH   1  15
TORSDOF 7
ENDMDL
MODEL 2
REMARK VINA RESULT:    -6.970      2.081      2.794
REMARK INTER + INTRA:         -10.750
REMARK INTER:                 -10.105
REMARK INTRA:                  -0.644
REMARK UNBOUND:                -1.131
REMARK  Name = 
REMARK  7 active torsions:
REMARK  status: ('A' for Active; 'I' for Inactive)
REMARK    1  A    between atoms: N_1  and  S_2
REMARK    2  A    between atoms: S_2  and  C_5
REMARK    3  A    between atoms: C_8  and  O_9
REMARK    4  A    between atoms: O_9  and  C_10
REMARK    5  A    between atoms: C_10  and  C_11
REMARK    6  A    between atoms: C_11  and  C_12
REMARK    7  A    between atoms: C_16  and  C_17
REMARK                            x       y       z     vdW  Elec       q    Type
REMARK                         _______ _______ _______ _____ _____    ______ ____
ROOT
ATOM      1  C   UNL     1      46.956   4.182  13.762  0.00  0.00    +0.000 C 
ENDROOT
BRANCH   1   2
ATOM      2  O   UNL     1      47.369   3.204  14.724  0.00  0.00    +0.000 OA
BRANCH   2   6
ATOM      3  C   UNL     1      48.545   4.504  18.514  0.00  0.00    +0.000 A 
ATOM      4  C   UNL     1      48.461   5.449  17.494  0.00  0.00    +0.000 A 
ATOM      5  C   UNL     1      48.069   5.045  16.213  0.00  0.00    +0.000 A 
ATOM      6  C   UNL     1      47.762   3.704  15.944  0.00  0.00    +0.000 A 
ATOM      7  C   UNL     1      47.856   2.767  16.977  0.00  0.00    +0.000 A 
ATOM      8  C   UNL     1      48.254   3.160  18.259  0.00  0.00    +0.000 A 
BRANCH   3   9
ATOM      9  S   UNL     1      49.112   4.975  20.123  0.00  0.00    +0.000 S 
ATOM     10  O   UNL     1      48.442   4.175  21.118  0.00  0.00    +0.000 OA
ATOM     11  O   UNL     1      49.165   6.422  20.200  0.00  0.00    +0.000 OA
BRANCH   9  12
ATOM     12  N   UNL     1      50.718   4.467  20.101  0.00  0.00    +0.000 NA
ATOM     13  H   UNL     1      51.286   5.204  19.686  0.00  0.00    +0.000 HD
ATOM     14  H   UNL     1      50.800   3.578  19.616  0.00  0.00    +0.000 HD
ENDBRANCH   9  12
ENDBRANCH   3   9
ENDBRANCH   2   6
ENDBRANCH   1   2
BRANCH   1  15
ATOM     15  C   UNL     1      45.474   4.528  13.933  0.00  0.00    +0.000 C 
BRANCH  15  16
ATOM     16  C   UNL     1      44.760   4.562  12.597  0.00  0.00    +0.000 A 
ATOM     17  C   UNL     1      43.605   5.329  12.406  0.00  0.00    +0.000 A 
ATOM     18  C   UNL     1      43.013   5.420  11.146  0.00  0.00    +0.000 A 
ATOM     19  C   UNL     1      43.586   4.769  10.056  0.00  0.00    +0.000 A 
ATOM     20  C   UNL     1      44.754   4.005  10.202  0.00  0.00    +0.000 A 
ATOM     21  C   UNL     1      45.305   3.889  11.495  0.00  0.00    +0.000 A 
BRANCH  20  22
ATOM     22  C   UNL     1      45.410   3.402   9.029  0.00  0.00    +0.000 A 
ATOM     23  C   UNL     1      45.618   2.028   8.914  0.00  0.00    +0.000 A 
ATOM     24  C   UNL     1      46.303   1.530   7.814  0.00  0.00    +0.000 A 
ATOM     25  C   UNL     1      46.762   2.410   6.849  0.00  0.00    +0.000 A 
ATOM     26  C   UNL     1      46.517   3.762   7.023  0.00  0.00    +0.000 A 
ATOM     27  N   UNL     1      45.849   4.271   8.080  0.00  0.00    +0.000 NA
ENDBRANCH  20  22
ENDBRANCH  15  16
ENDBRANCH   1  15
TORSDOF 7
ENDMDL
MODEL 3
REMARK VINA RESULT:    -6.948      3.825      4.338
REMARK INTER + INTRA:         -10.719
REMARK INTER:                  -9.828
REMARK INTRA:                  -0.891
REMARK UNBOUND:                -1.131
REMARK  Name = 
REMARK  7 active torsions:
REMARK  status: ('A' for Active; 'I' for Inactive)
REMARK    1  A    between atoms: N_1  and  S_2
REMARK    2  A    between atoms: S_2  and  C_5
REMARK    3  A    between atoms: C_8  and  O_9
REMARK    4  A    between atoms: O_9  and  C_10
REMARK    5  A    between atoms: C_10  and  C_11
REMARK    6  A    between atoms: C_11  and  C_12
REMARK    7  A    between atoms: C_16  and  C_17
REMARK                            x       y       z     vdW  Elec       q    Type
REMARK                         _______ _______ _______ _____ _____    ______ ____
ROOT
ATOM      1  C   UNL     1      45.074   6.919  12.598  0.00  0.00    +0.000 C 
ENDROOT
BRANCH   1   2
ATOM      2  O   UNL     1      45.547   8.264  12.463  0.00  0.00    +0.000 OA
BRANCH   2   6
ATOM      3  C   UNL     1      49.639   8.425  11.648  0.00  0.00    +0.000 A 
ATOM      4  C   UNL     1      48.954   9.628  11.801  0.00  0.00    +0.000 A 
ATOM      5  C   UNL     1      47.582   9.607  12.075  0.00  0.00    +0.000 A 
ATOM      6  C   UNL     1      46.891   8.394  12.197  0.00  0.00    +0.000 A 
ATOM      7  C   UNL     1      47.591   7.195  12.035  0.00  0.00    +0.000 A 
ATOM      8  C   UNL     1      48.962   7.206  11.754  0.00  0.00    +0.000 A 
BRANCH   3   9
ATOM      9  S   UNL     1      51.358   8.424  11.226  0.00  0.00    +0.000 S 
ATOM     10  O   UNL     1      51.754   9.755  10.837  0.00  0.00    +0.000 OA
ATOM     11  O   UNL     1      51.642   7.262  10.407  0.00  0.00    +0.000 OA
BRANCH   9  12
ATOM     12  N   UNL     1      52.093   8.119  12.710  0.00  0.00    +0.000 NA
ATOM     13  H   UNL     1      53.043   7.794  12.541  0.00  0.00    +0.000 HD
ATOM     14  H   UNL     1      51.536   7.464  13.251  0.00  0.00    +0.000 HD
ENDBRANCH   9  12
ENDBRANCH   3   9
ENDBRANCH   2   6
ENDBRANCH   1   2
BRANCH   1  15
ATOM     15  C   UNL     1      44.099   6.563  11.471  0.00  0.00    +0.000 C 
BRANCH  15  16
ATOM     16  C   UNL     1      44.149   5.083  11.149  0.00  0.00    +0.000 A 
ATOM     17  C   UNL     1      43.311   4.167  11.795  0.00  0.00    +0.000 A 
ATOM     18  C   UNL     1      43.307   2.823  11.422  0.00  0.00    +0.000 A 
ATOM     19  C   UNL     1      44.119   2.384  10.379  0.00  0.00    +0.000 A 
ATOM     20  C   UNL     1      44.960   3.275   9.694  0.00  0.00    +0.000 A 
ATOM     21  C   UNL     1      44.982   4.619  10.122  0.00  0.00    +0.000 A 
BRANCH  20  22
ATOM     22  C   UNL     1      45.740   2.826   8.528  0.00  0.00    +0.000 A 
ATOM     23  C   UNL     1      46.025   3.665   7.452  0.00  0.00    +0.000 A 
ATOM     24  C   UNL     1      46.708   3.162   6.354  0.00  0.00    +0.000 A 
ATOM     25  C   UNL     1      47.097   1.833   6.351  0.00  0.00    +0.000 A 
ATOM     26  C   UNL     1      46.786   1.056   7.454  0.00  0.00    +0.000 A 
ATOM     27  N   UNL     1      46.129   1.523   8.537  0.00  0.00    +0.000 NA
ENDBRANCH  20  22
ENDBRANCH  15  16
ENDBRANCH   1  15
TORSDOF 7
ENDMDL
MODEL 4
REMARK VINA RESULT:    -6.765      3.765      8.228
REMARK INTER + INTRA:         -10.467
REMARK INTER:                  -9.542
REMARK INTRA:                  -0.924
REMARK UNBOUND:                -1.131
REMARK  Name = 
REMARK  7 active torsions:
REMARK  status: ('A' for Active; 'I' for Inactive)
REMARK    1  A    between atoms: N_1  and  S_2
REMARK    2  A    between atoms: S_2  and  C_5
REMARK    3  A    between atoms: C_8  and  O_9
REMARK    4  A    between atoms: O_9  and  C_10
REMARK    5  A    between atoms: C_10  and  C_11
REMARK    6  A    between atoms: C_11  and  C_12
REMARK    7  A    between atoms: C_16  and  C_17
REMARK                            x       y       z     vdW  Elec       q    Type
REMARK                         _______ _______ _______ _____ _____    ______ ____
ROOT
ATOM      1  C   UNL     1      48.495   6.631  14.418  0.00  0.00    +0.000 C 
ENDROOT
BRANCH   1   2
ATOM      2  O   UNL     1      47.282   7.173  13.884  0.00  0.00    +0.000 OA
BRANCH   2   6
ATOM      3  C   UNL     1      45.232   4.578  11.335  0.00  0.00    +0.000 A 
ATOM      4  C   UNL     1      45.727   5.766  10.801  0.00  0.00    +0.000 A 
ATOM      5  C   UNL     1      46.418   6.657  11.630  0.00  0.00    +0.000 A 
ATOM      6  C   UNL     1      46.619   6.369  12.987  0.00  0.00    +0.000 A 
ATOM      7  C   UNL     1      46.112   5.175  13.509  0.00  0.00    +0.000 A 
ATOM      8  C   UNL     1      45.413   4.282  12.689  0.00  0.00    +0.000 A 
BRANCH   3   9
ATOM      9  S   UNL     1      44.287   3.472  10.327  0.00  0.00    +0.000 S 
ATOM     10  O   UNL     1      43.128   3.030  11.062  0.00  0.00    +0.000 OA
ATOM     11  O   UNL     1      45.188   2.545   9.671  0.00  0.00    +0.000 OA
BRANCH   9  12
ATOM     12  N   UNL     1      43.724   4.488   9.108  0.00  0.00    +0.000 NA
ATOM     13  H   UNL     1      42.981   4.008   8.602  0.00  0.00    +0.000 HD
ATOM     14  H   UNL     1      44.492   4.780   8.510  0.00  0.00    +0.000 HD
ENDBRANCH   9  12
ENDBRANCH   3   9
ENDBRANCH   2   6
ENDBRANCH   1   2
BRANCH   1  15
ATOM     15  C   UNL     1      48.524   6.746  15.945  0.00  0.00    +0.000 C 
BRANCH  15  16
ATOM     16  C   UNL     1      48.513   5.379  16.599  0.00  0.00    +0.000 A 
ATOM     17  C   UNL     1      47.323   4.662  16.772  0.00  0.00    +0.000 A 
ATOM     18  C   UNL     1      47.343   3.368  17.293  0.00  0.00    +0.000 A 
ATOM     19  C   UNL     1      48.555   2.764  17.620  0.00  0.00    +0.000 A 
ATOM     20  C   UNL     1      49.771   3.442  17.444  0.00  0.00    +0.000 A 
ATOM     21  C   UNL     1      49.721   4.767  16.962  0.00  0.00    +0.000 A 
BRANCH  20  22
ATOM     22  C   UNL     1      51.053   2.764  17.696  0.00  0.00    +0.000 A 
ATOM     23  C   UNL     1      52.152   3.423  18.245  0.00  0.00    +0.000 A 
ATOM     24  C   UNL     1      53.353   2.744  18.395  0.00  0.00    +0.000 A 
ATOM     25  C   UNL     1      53.434   1.420  18.000  0.00  0.00    +0.000 A 
ATOM     26  C   UNL     1      52.304   0.823  17.466  0.00  0.00    +0.000 A 
ATOM     27  N   UNL     1      51.122   1.460  17.316  0.00  0.00    +0.000 NA
ENDBRANCH  20  22
ENDBRANCH  15  16
ENDBRANCH   1  15
TORSDOF 7
ENDMDL
MODEL 5
REMARK VINA RESULT:    -6.496      2.038      3.447
REMARK INTER + INTRA:         -10.096
REMARK INTER:                  -9.104
REMARK INTRA:                  -0.992
REMARK UNBOUND:                -1.131
REMARK  Name = 
REMARK  7 active torsions:
REMARK  status: ('A' for Active; 'I' for Inactive)
REMARK    1  A    between atoms: N_1  and  S_2
REMARK    2  A    between atoms: S_2  and  C_5
REMARK    3  A    between atoms: C_8  and  O_9
REMARK    4  A    between atoms: O_9  and  C_10
REMARK    5  A    between atoms: C_10  and  C_11
REMARK    6  A    between atoms: C_11  and  C_12
REMARK    7  A    between atoms: C_16  and  C_17
REMARK                            x       y       z     vdW  Elec       q    Type
REMARK                         _______ _______ _______ _____ _____    ______ ____
ROOT
ATOM      1  C   UNL     1      49.827   7.570  12.578  0.00  0.00    +0.000 C 
ENDROOT
BRANCH   1   2
ATOM      2  O   UNL     1      49.922   8.034  13.930  0.00  0.00    +0.000 OA
BRANCH   2   6
ATOM      3  C   UNL     1      48.250   5.366  16.672  0.00  0.00    +0.000 A 
ATOM      4  C   UNL     1      49.342   6.128  17.081  0.00  0.00    +0.000 A 
ATOM      5  C   UNL     1      49.925   7.031  16.185  0.00  0.00    +0.000 A 
ATOM      6  C   UNL     1      49.424   7.179  14.885  0.00  0.00    +0.000 A 
ATOM      7  C   UNL     1      48.330   6.403  14.487  0.00  0.00    +0.000 A 
ATOM      8  C   UNL     1      47.746   5.492  15.374  0.00  0.00    +0.000 A 
BRANCH   3   9
ATOM      9  S   UNL     1      47.544   4.162  17.759  0.00  0.00    +0.000 S 
ATOM     10  O   UNL     1      48.573   3.636  18.621  0.00  0.00    +0.000 OA
ATOM     11  O   UNL     1      46.656   3.303  17.001  0.00  0.00    +0.000 OA
BRANCH   9  12
ATOM     12  N   UNL     1      46.538   5.100  18.731  0.00  0.00    +0.000 NA
ATOM     13  H   UNL     1      45.604   5.103  18.324  0.00  0.00    +0.000 HD
ATOM     14  H   UNL     1      46.927   6.032  18.845  0.00  0.00    +0.000 HD
ENDBRANCH   9  12
ENDBRANCH   3   9
ENDBRANCH   2   6
ENDBRANCH   1   2
BRANCH   1  15
ATOM     15  C   UNL     1      48.955   8.507  11.736  0.00  0.00    +0.000 C 
BRANCH  15  16
ATOM     16  C   UNL     1      47.497   8.096  11.789  0.00  0.00    +0.000 A 
ATOM     17  C   UNL     1      46.509   8.970  12.256  0.00  0.00    +0.000 A 
ATOM     18  C   UNL     1      45.163   8.608  12.214  0.00  0.00    +0.000 A 
ATOM     19  C   UNL     1      44.786   7.380  11.677  0.00  0.00    +0.000 A 
ATOM     20  C   UNL     1      45.744   6.482  11.181  0.00  0.00    +0.000 A 
ATOM     21  C   UNL     1      47.102   6.851  11.281  0.00  0.00    +0.000 A 
BRANCH  20  22
ATOM     22  C   UNL     1      45.334   5.230  10.524  0.00  0.00    +0.000 A 
ATOM     23  C   UNL     1      45.524   5.004   9.162  0.00  0.00    +0.000 A 
ATOM     24  C   UNL     1      45.053   3.830   8.591  0.00  0.00    +0.000 A 
ATOM     25  C   UNL     1      44.406   2.902   9.389  0.00  0.00    +0.000 A 
ATOM     26  C   UNL     1      44.255   3.187  10.735  0.00  0.00    +0.000 A 
ATOM     27  N   UNL     1      44.709   4.319  11.317  0.00  0.00    +0.000 NA
ENDBRANCH  20  22
ENDBRANCH  15  16
ENDBRANCH   1  15
TORSDOF 7
ENDMDL
MODEL 6
REMARK VINA RESULT:    -6.252      4.367      7.539
REMARK INTER + INTRA:          -9.759
REMARK INTER:                  -8.426
REMARK INTRA:                  -1.333
REMARK UNBOUND:                -1.131
REMARK  Name = 
REMARK  7 active torsions:
REMARK  status: ('A' for Active; 'I' for Inactive)
REMARK    1  A    between atoms: N_1  and  S_2
REMARK    2  A    between atoms: S_2  and  C_5
REMARK    3  A    between atoms: C_8  and  O_9
REMARK    4  A    between atoms: O_9  and  C_10
REMARK    5  A    between atoms: C_10  and  C_11
REMARK    6  A    between atoms: C_11  and  C_12
REMARK    7  A    between atoms: C_16  and  C_17
REMARK                            x       y       z     vdW  Elec       q    Type
REMARK                         _______ _______ _______ _____ _____    ______ ____
ROOT
ATOM      1  C   UNL     1      48.127   9.397  13.683  0.00  0.00    +0.000 C 
ENDROOT
BRANCH   1   2
ATOM      2  O   UNL     1      48.351   8.265  12.835  0.00  0.00    +0.000 OA
BRANCH   2   6
ATOM      3  C   UNL     1      45.131   5.614  12.637  0.00  0.00    +0.000 A 
ATOM      4  C   UNL     1      46.314   5.166  13.221  0.00  0.00    +0.000 A 
ATOM      5  C   UNL     1      47.411   6.031  13.303  0.00  0.00    +0.000 A 
ATOM      6  C   UNL     1      47.334   7.339  12.805  0.00  0.00    +0.000 A 
ATOM      7  C   UNL     1      46.142   7.772  12.217  0.00  0.00    +0.000 A 
ATOM      8  C   UNL     1      45.042   6.912  12.125  0.00  0.00    +0.000 A 
BRANCH   3   9
ATOM      9  S   UNL     1      43.755   4.516  12.452  0.00  0.00    +0.000 S 
ATOM     10  O   UNL     1      44.060   3.258  13.087  0.00  0.00    +0.000 OA
ATOM     11  O   UNL     1      43.266   4.597  11.090  0.00  0.00    +0.000 OA
BRANCH   9  12
ATOM     12  N   UNL     1      42.575   5.257  13.398  0.00  0.00    +0.000 NA
ATOM     13  H   UNL     1      42.635   6.265  13.261  0.00  0.00    +0.000 HD
ATOM     14  H   UNL     1      42.676   4.980  14.370  0.00  0.00    +0.000 HD
ENDBRANCH   9  12
ENDBRANCH   3   9
ENDBRANCH   2   6
ENDBRANCH   1   2
BRANCH   1  15
ATOM     15  C   UNL     1      49.260   9.551  14.704  0.00  0.00    +0.000 C 
BRANCH  15  16
ATOM     16  C   UNL     1      48.983   8.745  15.957  0.00  0.00    +0.000 A 
ATOM     17  C   UNL     1      48.400   9.330  17.087  0.00  0.00    +0.000 A 
ATOM     18  C   UNL     1      48.069   8.554  18.198  0.00  0.00    +0.000 A 
ATOM     19  C   UNL     1      48.290   7.179  18.182  0.00  0.00    +0.000 A 
ATOM     20  C   UNL     1      48.856   6.552  17.061  0.00  0.00    +0.000 A 
ATOM     21  C   UNL     1      49.226   7.365  15.970  0.00  0.00    +0.000 A 
BRANCH  20  22
ATOM     22  C   UNL     1      48.995   5.086  17.010  0.00  0.00    +0.000 A 
ATOM     23  C   UNL     1      47.934   4.247  16.674  0.00  0.00    +0.000 A 
ATOM     24  C   UNL     1      48.112   2.871  16.710  0.00  0.00    +0.000 A 
ATOM     25  C   UNL     1      49.345   2.359  17.075  0.00  0.00    +0.000 A 
ATOM     26  C   UNL     1      50.358   3.248  17.393  0.00  0.00    +0.000 A 
ATOM     27  N   UNL     1      50.212   4.591  17.359  0.00  0.00    +0.000 NA
ENDBRANCH  20  22
ENDBRANCH  15  16
ENDBRANCH   1  15
TORSDOF 7
ENDMDL
MODEL 7
REMARK VINA RESULT:    -6.227      3.981      7.314
REMARK INTER + INTRA:          -9.723
REMARK INTER:                  -8.266
REMARK INTRA:                  -1.457
REMARK UNBOUND:                -1.131
REMARK  Name = 
REMARK  7 active torsions:
REMARK  status: ('A' for Active; 'I' for Inactive)
REMARK    1  A    between atoms: N_1  and  S_2
REMARK    2  A    between atoms: S_2  and  C_5
REMARK    3  A    between atoms: C_8  and  O_9
REMARK    4  A    between atoms: O_9  and  C_10
REMARK    5  A    between atoms: C_10  and  C_11
REMARK    6  A    between atoms: C_11  and  C_12
REMARK    7  A    between atoms: C_16  and  C_17
REMARK                            x       y       z     vdW  Elec       q    Type
REMARK                         _______ _______ _______ _____ _____    ______ ____
ROOT
ATOM      1  C   UNL     1      48.351   6.736  14.963  0.00  0.00    +0.000 C 
ENDROOT
BRANCH   1   2
ATOM      2  O   UNL     1      48.505   5.786  13.902  0.00  0.00    +0.000 OA
BRANCH   2   6
ATOM      3  C   UNL     1      44.985   4.852  11.861  0.00  0.00    +0.000 A 
ATOM      4  C   UNL     1      45.466   3.934  12.791  0.00  0.00    +0.000 A 
ATOM      5  C   UNL     1      46.643   4.218  13.492  0.00  0.00    +0.000 A 
ATOM      6  C   UNL     1      47.342   5.412  13.269  0.00  0.00    +0.000 A 
ATOM      7  C   UNL     1      46.850   6.321  12.328  0.00  0.00    +0.000 A 
ATOM      8  C   UNL     1      45.677   6.043  11.618  0.00  0.00    +0.000 A 
BRANCH   3   9
ATOM      9  S   UNL     1      43.541   4.483  10.906  0.00  0.00    +0.000 S 
ATOM     10  O   UNL     1      42.587   5.554  11.051  0.00  0.00    +0.000 OA
ATOM     11  O   UNL     1      43.182   3.093  11.111  0.00  0.00    +0.000 OA
BRANCH   9  12
ATOM     12  N   UNL     1      44.122   4.568   9.328  0.00  0.00    +0.000 NA
ATOM     13  H   UNL     1      43.542   5.220   8.803  0.00  0.00    +0.000 HD
ATOM     14  H   UNL     1      44.157   3.640   8.914  0.00  0.00    +0.000 HD
ENDBRANCH   9  12
ENDBRANCH   3   9
ENDBRANCH   2   6
ENDBRANCH   1   2
BRANCH   1  15
ATOM     15  C   UNL     1      49.453   7.798  14.914  0.00  0.00    +0.000 C 
BRANCH  15  16
ATOM     16  C   UNL     1      49.330   8.661  13.674  0.00  0.00    +0.000 A 
ATOM     17  C   UNL     1      50.381   8.776  12.757  0.00  0.00    +0.000 A 
ATOM     18  C   UNL     1      50.218   9.501  11.577  0.00  0.00    +0.000 A 
ATOM     19  C   UNL     1      48.993  10.096  11.285  0.00  0.00    +0.000 A 
ATOM     20  C   UNL     1      47.908   9.989  12.170  0.00  0.00    +0.000 A 
ATOM     21  C   UNL     1      48.113   9.292  13.379  0.00  0.00    +0.000 A 
BRANCH  20  22
ATOM     22  C   UNL     1      46.588  10.533  11.810  0.00  0.00    +0.000 A 
ATOM     23  C   UNL     1      45.402   9.852  12.076  0.00  0.00    +0.000 A 
ATOM     24  C   UNL     1      44.194  10.389  11.651  0.00  0.00    +0.000 A 
ATOM     25  C   UNL     1      44.193  11.596  10.974  0.00  0.00    +0.000 A 
ATOM     26  C   UNL     1      45.406  12.223  10.746  0.00  0.00    +0.000 A 
ATOM     27  N   UNL     1      46.594  11.725  11.155  0.00  0.00    +0.000 NA
ENDBRANCH  20  22
ENDBRANCH  15  16
ENDBRANCH   1  15
TORSDOF 7
ENDMDL
MODEL 8
REMARK VINA RESULT:    -6.183      3.958      8.466
REMARK INTER + INTRA:          -9.663
REMARK INTER:                  -8.887
REMARK INTRA:                  -0.776
REMARK UNBOUND:                -1.131
REMARK  Name = 
REMARK  7 active torsions:
REMARK  status: ('A' for Active; 'I' for Inactive)
REMARK    1  A    between atoms: N_1  and  S_2
REMARK    2  A    between atoms: S_2  and  C_5
REMARK    3  A    between atoms: C_8  and  O_9
REMARK    4  A    between atoms: O_9  and  C_10
REMARK    5  A    between atoms: C_10  and  C_11
REMARK    6  A    between atoms: C_11  and  C_12
REMARK    7  A    between atoms: C_16  and  C_17
REMARK                            x       y       z     vdW  Elec       q    Type
REMARK                         _______ _______ _______ _____ _____    ______ ____
ROOT
ATOM      1  C   UNL     1      48.356   7.136  14.761  0.00  0.00    +0.000 C 
ENDROOT
BRANCH   1   2
ATOM      2  O   UNL     1      48.346   5.810  14.220  0.00  0.00    +0.000 OA
BRANCH   2   6
ATOM      3  C   UNL     1      45.122   4.718  11.803  0.00  0.00    +0.000 A 
ATOM      4  C   UNL     1      45.699   5.969  11.600  0.00  0.00    +0.000 A 
ATOM      5  C   UNL     1      46.781   6.364  12.394  0.00  0.00    +0.000 A 
ATOM      6  C   UNL     1      47.290   5.518  13.388  0.00  0.00    +0.000 A 
ATOM      7  C   UNL     1      46.697   4.267  13.583  0.00  0.00    +0.000 A 
ATOM      8  C   UNL     1      45.610   3.867  12.799  0.00  0.00    +0.000 A 
BRANCH   3   9
ATOM      9  S   UNL     1      43.704   4.226  10.865  0.00  0.00    +0.000 S 
ATOM     10  O   UNL     1      44.030   4.247   9.460  0.00  0.00    +0.000 OA
ATOM     11  O   UNL     1      42.531   4.891  11.397  0.00  0.00    +0.000 OA
BRANCH   9  12
ATOM     12  N   UNL     1      43.534   2.606  11.293  0.00  0.00    +0.000 NA
ATOM     13  H   UNL     1      42.565   2.329  11.139  0.00  0.00    +0.000 HD
ATOM     14  H   UNL     1      43.844   2.460  12.250  0.00  0.00    +0.000 HD
ENDBRANCH   9  12
ENDBRANCH   3   9
ENDBRANCH   2   6
ENDBRANCH   1   2
BRANCH   1  15
ATOM     15  C   UNL     1      49.489   7.306  15.777  0.00  0.00    +0.000 C 
BRANCH  15  16
ATOM     16  C   UNL     1      49.427   6.241  16.853  0.00  0.00    +0.000 A 
ATOM     17  C   UNL     1      48.316   6.118  17.695  0.00  0.00    +0.000 A 
ATOM     18  C   UNL     1      48.237   5.076  18.619  0.00  0.00    +0.000 A 
ATOM     19  C   UNL     1      49.254   4.127  18.691  0.00  0.00    +0.000 A 
ATOM     20  C   UNL     1      50.376   4.205  17.852  0.00  0.00    +0.000 A 
ATOM     21  C   UNL     1      50.456   5.295  16.961  0.00  0.00    +0.000 A 
BRANCH  20  22
ATOM     22  C   UNL     1      51.399   3.145  17.864  0.00  0.00    +0.000 A 
ATOM     23  C   UNL     1      51.169   1.879  17.326  0.00  0.00    +0.000 A 
ATOM     24  C   UNL     1      52.150   0.903  17.429  0.00  0.00    +0.000 A 
ATOM     25  C   UNL     1      53.343   1.209  18.061  0.00  0.00    +0.000 A 
ATOM     26  C   UNL     1      53.508   2.486  18.569  0.00  0.00    +0.000 A 
ATOM     27  N   UNL     1      52.572   3.455  18.476  0.00  0.00    +0.000 NA
ENDBRANCH  20  22
ENDBRANCH  15  16
ENDBRANCH   1  15
TORSDOF 7
ENDMDL
MODEL 9
REMARK VINA RESULT:    -6.053      4.188      7.757
REMARK INTER + INTRA:          -9.484
REMARK INTER:                  -8.357
REMARK INTRA:                  -1.127
REMARK UNBOUND:                -1.131
REMARK  Name = 
REMARK  7 active torsions:
REMARK  status: ('A' for Active; 'I' for Inactive)
REMARK    1  A    between atoms: N_1  and  S_2
REMARK    2  A    between atoms: S_2  and  C_5
REMARK    3  A    between atoms: C_8  and  O_9
REMARK    4  A    between atoms: O_9  and  C_10
REMARK    5  A    between atoms: C_10  and  C_11
REMARK    6  A    between atoms: C_11  and  C_12
REMARK    7  A    between atoms: C_16  and  C_17
REMARK                            x       y       z     vdW  Elec       q    Type
REMARK                         _______ _______ _______ _____ _____    ______ ____
ROOT
ATOM      1  C   UNL     1      49.501   7.479  13.416  0.00  0.00    +0.000 C 
ENDROOT
BRANCH   1   2
ATOM      2  O   UNL     1      48.492   7.697  12.424  0.00  0.00    +0.000 OA
BRANCH   2   6
ATOM      3  C   UNL     1      45.034   5.360  12.540  0.00  0.00    +0.000 A 
ATOM      4  C   UNL     1      46.101   4.993  13.356  0.00  0.00    +0.000 A 
ATOM      5  C   UNL     1      47.274   5.756  13.340  0.00  0.00    +0.000 A 
ATOM      6  C   UNL     1      47.387   6.883  12.515  0.00  0.00    +0.000 A 
ATOM      7  C   UNL     1      46.309   7.236  11.697  0.00  0.00    +0.000 A 
ATOM      8  C   UNL     1      45.136   6.475  11.701  0.00  0.00    +0.000 A 
BRANCH   3   9
ATOM      9  S   UNL     1      43.569   4.368  12.484  0.00  0.00    +0.000 S 
ATOM     10  O   UNL     1      42.987   4.451  11.167  0.00  0.00    +0.000 OA
ATOM     11  O   UNL     1      42.796   4.600  13.688  0.00  0.00    +0.000 OA
BRANCH   9  12
ATOM     12  N   UNL     1      44.185   2.809  12.640  0.00  0.00    +0.000 NA
ATOM     13  H   UNL     1      45.032   2.737  12.077  0.00  0.00    +0.000 HD
ATOM     14  H   UNL     1      43.478   2.124  12.388  0.00  0.00    +0.000 HD
ENDBRANCH   9  12
ENDBRANCH   3   9
ENDBRANCH   2   6
ENDBRANCH   1   2
BRANCH   1  15
ATOM     15  C   UNL     1      49.359   8.474  14.572  0.00  0.00    +0.000 C 
BRANCH  15  16
ATOM     16  C   UNL     1      49.280   7.759  15.905  0.00  0.00    +0.000 A 
ATOM     17  C   UNL     1      48.587   8.311  16.989  0.00  0.00    +0.000 A 
ATOM     18  C   UNL     1      48.447   7.599  18.180  0.00  0.00    +0.000 A 
ATOM     19  C   UNL     1      48.973   6.314  18.292  0.00  0.00    +0.000 A 
ATOM     20  C   UNL     1      49.658   5.718  17.222  0.00  0.00    +0.000 A 
ATOM     21  C   UNL     1      49.829   6.477  16.046  0.00  0.00    +0.000 A 
BRANCH  20  22
ATOM     22  C   UNL     1      50.124   4.323  17.311  0.00  0.00    +0.000 A 
ATOM     23  C   UNL     1      51.411   3.991  17.732  0.00  0.00    +0.000 A 
ATOM     24  C   UNL     1      51.809   2.661  17.729  0.00  0.00    +0.000 A 
ATOM     25  C   UNL     1      50.916   1.689  17.312  0.00  0.00    +0.000 A 
ATOM     26  C   UNL     1      49.652   2.087  16.912  0.00  0.00    +0.000 A 
ATOM     27  N   UNL     1      49.238   3.372  16.911  0.00  0.00    +0.000 NA
ENDBRANCH  20  22
ENDBRANCH  15  16
ENDBRANCH   1  15
TORSDOF 7
ENDMDL
