MODEL 1
REMARK VINA RESULT:    -8.478      0.000      0.000
REMARK INTER + INTRA:         -14.296
REMARK INTER:                 -12.939
REMARK INTRA:                  -1.357
REMARK UNBOUND:                -1.357
REMARK  Name = 
REMARK  10 active torsions:
REMARK  status: ('A' for Active; 'I' for Inactive)
REMARK    1  A    between atoms: C_1  and  C_2
REMARK    2  A    between atoms: C_2  and  C_3
REMARK    3  A    between atoms: C_3  and  C_4
REMARK    4  A    between atoms: C_4  and  N_5
REMARK    5  A    between atoms: C_4  and  C_13
REMARK    6  A    between atoms: N_5  and  C_6
REMARK    7  A    between atoms: C_6  and  C_7
REMARK    8  A    between atoms: C_16  and  C_17
REMARK    9  A    between atoms: C_17  and  N_18
REMARK   10  A    between atoms: C_19  and  C_21
REMARK                            x       y       z     vdW  Elec       q    Type
REMARK                         _______ _______ _______ _____ _____    ______ ____
ROOT
ATOM      1  C   UNL     1      45.632   4.346  12.014  0.00  0.00    +0.000 A 
ATOM      2  C   UNL     1      45.908   5.522  11.288  0.00  0.00    +0.000 A 
ATOM      3  C   UNL     1      46.739   6.517  11.811  0.00  0.00    +0.000 A 
ATOM      4  C   UNL     1      47.379   6.332  13.040  0.00  0.00    +0.000 A 
ATOM      5  C   UNL     1      47.140   5.151  13.751  0.00  0.00    +0.000 A 
ATOM      6  C   UNL     1      46.269   4.178  13.251  0.00  0.00    +0.000 A 
ENDROOT
BRANCH   1   7
ATOM      7  C   UNL     1      44.562   3.365  11.502  0.00  0.00    +0.000 C 
BRANCH   7   8
ATOM      8  N   UNL     1      44.292   3.554  10.051  0.00  0.00    +0.000 NA
ATOM      9  H   UNL     1      44.882   4.310   9.707  0.00  0.00    +0.000 HD
BRANCH   8  10
ATOM     10  C   UNL     1      44.619   2.335   9.296  0.00  0.00    +0.000 C 
BRANCH  10  11
ATOM     11  C   UNL     1      45.723   2.429   8.269  0.00  0.00    +0.000 A 
ATOM     12  C   UNL     1      46.478   1.270   7.998  0.00  0.00    +0.000 A 
ATOM     13  C   UNL     1      47.373   1.225   6.931  0.00  0.00    +0.000 A 
ATOM     14  C   UNL     1      47.528   2.344   6.119  0.00  0.00    +0.000 A 
ATOM     15  C   UNL     1      46.807   3.509   6.392  0.00  0.00    +0.000 A 
ATOM     16  C   UNL     1      45.907   3.552   7.462  0.00  0.00    +0.000 A 
ENDBRANCH  10  11
ENDBRANCH   8  10
ENDBRANCH   7   8
BRANCH   7  17
ATOM     17  C   UNL     1      43.264   3.471  12.348  0.00  0.00    +0.000 C 
BRANCH  17  19
ATOM     18  C   UNL     1      42.268   5.713  11.814  0.00  0.00    +0.000 C 
ATOM     19  C   UNL     1      42.927   4.860  12.898  0.00  0.00    +0.000 C 
ENDBRANCH  17  19
ENDBRANCH   7  17
ENDBRANCH   1   7
BRANCH   4  20
ATOM     20  C   UNL     1      48.275   7.392  13.622  0.00  0.00    +0.000 C 
BRANCH  20  21
ATOM     21  N   UNL     1      48.204   7.410  15.061  0.00  0.00    +0.000 N 
ATOM     22  C   UNL     1      49.287   7.042  15.820  0.00  0.00    +0.000 C 
ATOM     23  O   UNL     1      50.361   6.739  15.310  0.00  0.00    +0.000 OA
ATOM     24  H   UNL     1      47.280   7.439  15.482  0.00  0.00    +0.000 HD
BRANCH  22  25
ATOM     25  C   UNL     1      49.118   7.081  17.280  0.00  0.00    +0.000 A 
ATOM     26  C   UNL     1      49.015   8.308  17.921  0.00  0.00    +0.000 A 
ATOM     27  S   UNL     1      48.768   8.184  19.603  0.00  0.00    +0.000 S 
ATOM     28  C   UNL     1      48.846   6.487  19.543  0.00  0.00    +0.000 A 
ATOM     29  N   UNL     1      48.728   5.742  20.675  0.00  0.00    +0.000 NA
ATOM     30  C   UNL     1      48.838   4.467  20.490  0.00  0.00    +0.000 A 
ATOM     31  N   UNL     1      49.047   3.873  19.272  0.00  0.00    +0.000 N 
ATOM     32  C   UNL     1      49.139   4.581  18.099  0.00  0.00    +0.000 A 
ATOM     33  O   UNL     1      49.285   4.012  17.022  0.00  0.00    +0.000 OA
ATOM     34  C   UNL     1      49.040   6.021  18.252  0.00  0.00    +0.000 A 
ATOM     35  H   UNL     1      49.115   2.866  19.196  0.00  0.00    +0.000 HD
ENDBRANCH  22  25
ENDBRANCH  20  21
ENDBRANCH   4  20
TORSDOF 9
ENDMDL
MODEL 2
REMARK VINA RESULT:    -8.221      1.574      2.535
REMARK INTER + INTRA:         -13.904
REMARK INTER:                 -12.311
REMARK INTRA:                  -1.592
REMARK UNBOUND:                -1.357
REMARK  Name = 
REMARK  10 active torsions:
REMARK  status: ('A' for Active; 'I' for Inactive)
REMARK    1  A    between atoms: C_1  and  C_2
REMARK    2  A    between atoms: C_2  and  C_3
REMARK    3  A    between atoms: C_3  and  C_4
REMARK    4  A    between atoms: C_4  and  N_5
REMARK    5  A    between atoms: C_4  and  C_13
REMARK    6  A    between atoms: N_5  and  C_6
REMARK    7  A    between atoms: C_6  and  C_7
REMARK    8  A    between atoms: C_16  and  C_17
REMARK    9  A    between atoms: C_17  and  N_18
REMARK   10  A    between atoms: C_19  and  C_21
REMARK                            x       y       z     vdW  Elec       q    Type
REMARK                         _______ _______ _______ _____ _____    ______ ____
ROOT
ATOM      1  C   UNL     1      46.011   5.580  11.808  0.00  0.00    +0.000 A 
ATOM      2  C   UNL     1      46.169   5.029  13.096  0.00  0.00    +0.000 A 
ATOM      3  C   UNL     1      47.132   5.523  13.981  0.00  0.00    +0.000 A 
ATOM      4  C   UNL     1      47.911   6.631  13.634  0.00  0.00    +0.000 A 
ATOM      5  C   UNL     1      47.734   7.208  12.372  0.00  0.00    +0.000 A 
ATOM      6  C   UNL     1      46.807   6.682  11.468  0.00  0.00    +0.000 A 
ENDROOT
BRANCH   1   7
ATOM      7  C   UNL     1      45.085   4.890  10.790  0.00  0.00    +0.000 C 
BRANCH   7   8
ATOM      8  N   UNL     1      45.491   5.188   9.389  0.00  0.00    +0.000 NA
ATOM      9  H   UNL     1      46.495   5.043   9.304  0.00  0.00    +0.000 HD
BRANCH   8  10
ATOM     10  C   UNL     1      44.813   4.286   8.446  0.00  0.00    +0.000 C 
BRANCH  10  11
ATOM     11  C   UNL     1      45.632   3.174   7.838  0.00  0.00    +0.000 A 
ATOM     12  C   UNL     1      46.504   3.495   6.778  0.00  0.00    +0.000 A 
ATOM     13  C   UNL     1      47.431   2.570   6.301  0.00  0.00    +0.000 A 
ATOM     14  C   UNL     1      47.498   1.307   6.879  0.00  0.00    +0.000 A 
ATOM     15  C   UNL     1      46.622   0.965   7.912  0.00  0.00    +0.000 A 
ATOM     16  C   UNL     1      45.693   1.894   8.391  0.00  0.00    +0.000 A 
ENDBRANCH  10  11
ENDBRANCH   8  10
ENDBRANCH   7   8
BRANCH   7  17
ATOM     17  C   UNL     1      43.600   5.261  11.052  0.00  0.00    +0.000 C 
BRANCH  17  19
ATOM     18  C   UNL     1      43.372   2.851  11.716  0.00  0.00    +0.000 C 
ATOM     19  C   UNL     1      42.786   4.254  11.869  0.00  0.00    +0.000 C 
ENDBRANCH  17  19
ENDBRANCH   7  17
ENDBRANCH   1   7
BRANCH   4  20
ATOM     20  C   UNL     1      48.954   7.177  14.571  0.00  0.00    +0.000 C 
BRANCH  20  21
ATOM     21  N   UNL     1      48.616   6.913  15.948  0.00  0.00    +0.000 N 
ATOM     22  C   UNL     1      49.482   6.227  16.761  0.00  0.00    +0.000 C 
ATOM     23  O   UNL     1      50.587   5.864  16.370  0.00  0.00    +0.000 OA
ATOM     24  H   UNL     1      47.641   7.005  16.214  0.00  0.00    +0.000 HD
BRANCH  22  25
ATOM     25  C   UNL     1      49.049   5.995  18.147  0.00  0.00    +0.000 A 
ATOM     26  C   UNL     1      49.205   4.735  18.708  0.00  0.00    +0.000 A 
ATOM     27  S   UNL     1      48.708   4.643  20.336  0.00  0.00    +0.000 S 
ATOM     28  C   UNL     1      48.213   6.269  20.332  0.00  0.00    +0.000 A 
ATOM     29  N   UNL     1      47.660   6.834  21.439  0.00  0.00    +0.000 NA
ATOM     30  C   UNL     1      47.300   8.067  21.289  0.00  0.00    +0.000 A 
ATOM     31  N   UNL     1      47.453   8.785  20.131  0.00  0.00    +0.000 N 
ATOM     32  C   UNL     1      48.036   8.269  18.999  0.00  0.00    +0.000 A 
ATOM     33  O   UNL     1      48.193   8.955  17.994  0.00  0.00    +0.000 OA
ATOM     34  C   UNL     1      48.442   6.880  19.109  0.00  0.00    +0.000 A 
ATOM     35  H   UNL     1      47.157   9.751  20.083  0.00  0.00    +0.000 HD
ENDBRANCH  22  25
ENDBRANCH  20  21
ENDBRANCH   4  20
TORSDOF 9
ENDMDL
MODEL 3
REMARK VINA RESULT:    -8.206      1.247      1.667
REMARK INTER + INTRA:         -13.881
REMARK INTER:                 -12.401
REMARK INTRA:                  -1.479
REMARK UNBOUND:                -1.357
REMARK  Name = 
REMARK  10 active torsions:
REMARK  status: ('A' for Active; 'I' for Inactive)
REMARK    1  A    between atoms: C_1  and  C_2
REMARK    2  A    between atoms: C_2  and  C_3
REMARK    3  A    between atoms: C_3  and  C_4
REMARK    4  A    between atoms: C_4  and  N_5
REMARK    5  A    between atoms: C_4  and  C_13
REMARK    6  A    between atoms: N_5  and  C_6
REMARK    7  A    between atoms: C_6  and  C_7
REMARK    8  A    between atoms: C_16  and  C_17
REMARK    9  A    between atoms: C_17  and  N_18
REMARK   10  A    between atoms: C_19  and  C_21
REMARK                            x       y       z     vdW  Elec       q    Type
REMARK                         _______ _______ _______ _____ _____    ______ ____
ROOT
ATOM      1  C   UNL     1      45.700   6.437  11.483  0.00  0.00    +0.000 A 
ATOM      2  C   UNL     1      45.053   7.638  11.833  0.00  0.00    +0.000 A 
ATOM      3  C   UNL     1      45.656   8.563  12.691  0.00  0.00    +0.000 A 
ATOM      4  C   UNL     1      46.956   8.350  13.160  0.00  0.00    +0.000 A 
ATOM      5  C   UNL     1      47.621   7.177  12.788  0.00  0.00    +0.000 A 
ATOM      6  C   UNL     1      46.998   6.229  11.972  0.00  0.00    +0.000 A 
ENDROOT
BRANCH   1   7
ATOM      7  C   UNL     1      44.934   5.354  10.703  0.00  0.00    +0.000 C 
BRANCH   7   8
ATOM      8  N   UNL     1      45.268   5.381   9.254  0.00  0.00    +0.000 NA
ATOM      9  H   UNL     1      46.281   5.405   9.155  0.00  0.00    +0.000 HD
BRANCH   8  10
ATOM     10  C   UNL     1      44.768   4.173   8.580  0.00  0.00    +0.000 C 
BRANCH  10  11
ATOM     11  C   UNL     1      45.792   3.229   7.995  0.00  0.00    +0.000 A 
ATOM     12  C   UNL     1      45.815   1.901   8.465  0.00  0.00    +0.000 A 
ATOM     13  C   UNL     1      46.590   0.928   7.839  0.00  0.00    +0.000 A 
ATOM     14  C   UNL     1      47.358   1.271   6.731  0.00  0.00    +0.000 A 
ATOM     15  C   UNL     1      47.367   2.590   6.271  0.00  0.00    +0.000 A 
ATOM     16  C   UNL     1      46.587   3.566   6.898  0.00  0.00    +0.000 A 
ENDBRANCH  10  11
ENDBRANCH   8  10
ENDBRANCH   7   8
BRANCH   7  17
ATOM     17  C   UNL     1      43.404   5.476  10.945  0.00  0.00    +0.000 C 
BRANCH  17  19
ATOM     18  C   UNL     1      43.599   3.277  12.140  0.00  0.00    +0.000 C 
ATOM     19  C   UNL     1      42.821   4.590  12.049  0.00  0.00    +0.000 C 
ENDBRANCH  17  19
ENDBRANCH   7  17
ENDBRANCH   1   7
BRANCH   4  20
ATOM     20  C   UNL     1      47.622   9.332  14.086  0.00  0.00    +0.000 C 
BRANCH  20  21
ATOM     21  N   UNL     1      47.601   8.868  15.450  0.00  0.00    +0.000 N 
ATOM     22  C   UNL     1      48.753   8.441  16.062  0.00  0.00    +0.000 C 
ATOM     23  O   UNL     1      49.841   8.487  15.497  0.00  0.00    +0.000 OA
ATOM     24  H   UNL     1      46.699   8.617  15.844  0.00  0.00    +0.000 HD
BRANCH  22  25
ATOM     25  C   UNL     1      48.633   7.975  17.451  0.00  0.00    +0.000 A 
ATOM     26  C   UNL     1      48.462   8.903  18.469  0.00  0.00    +0.000 A 
ATOM     27  S   UNL     1      48.284   8.203  20.013  0.00  0.00    +0.000 S 
ATOM     28  C   UNL     1      48.484   6.637  19.384  0.00  0.00    +0.000 A 
ATOM     29  N   UNL     1      48.461   5.548  20.200  0.00  0.00    +0.000 NA
ATOM     30  C   UNL     1      48.658   4.422  19.596  0.00  0.00    +0.000 A 
ATOM     31  N   UNL     1      48.867   4.290  18.247  0.00  0.00    +0.000 N 
ATOM     32  C   UNL     1      48.866   5.355  17.380  0.00  0.00    +0.000 A 
ATOM     33  O   UNL     1      49.016   5.193  16.173  0.00  0.00    +0.000 OA
ATOM     34  C   UNL     1      48.667   6.647  18.010  0.00  0.00    +0.000 A 
ATOM     35  H   UNL     1      49.007   3.376  17.836  0.00  0.00    +0.000 HD
ENDBRANCH  22  25
ENDBRANCH  20  21
ENDBRANCH   4  20
TORSDOF 9
ENDMDL
MODEL 4
REMARK VINA RESULT:    -8.159      1.882      2.300
REMARK INTER + INTRA:         -13.809
REMARK INTER:                 -12.469
REMARK INTRA:                  -1.340
REMARK UNBOUND:                -1.357
REMARK  Name = 
REMARK  10 active torsions:
REMARK  status: ('A' for Active; 'I' for Inactive)
REMARK    1  A    between atoms: C_1  and  C_2
REMARK    2  A    between atoms: C_2  and  C_3
REMARK    3  A    between atoms: C_3  and  C_4
REMARK    4  A    between atoms: C_4  and  N_5
REMARK    5  A    between atoms: C_4  and  C_13
REMARK    6  A    between atoms: N_5  and  C_6
REMARK    7  A    between atoms: C_6  and  C_7
REMARK    8  A    between atoms: C_16  and  C_17
REMARK    9  A    between atoms: C_17  and  N_18
REMARK   10  A    between atoms: C_19  and  C_21
REMARK                            x       y       z     vdW  Elec       q    Type
REMARK                         _______ _______ _______ _____ _____    ______ ____
ROOT
ATOM      1  C   UNL     1      45.870   4.468  12.344  0.00  0.00    +0.000 A 
ATOM      2  C   UNL     1      46.146   5.697  11.713  0.00  0.00    +0.000 A 
ATOM      3  C   UNL     1      46.909   6.683  12.349  0.00  0.00    +0.000 A 
ATOM      4  C   UNL     1      47.481   6.437  13.601  0.00  0.00    +0.000 A 
ATOM      5  C   UNL     1      47.243   5.204  14.219  0.00  0.00    +0.000 A 
ATOM      6  C   UNL     1      46.439   4.240  13.605  0.00  0.00    +0.000 A 
ENDROOT
BRANCH   1   7
ATOM      7  C   UNL     1      44.868   3.489  11.705  0.00  0.00    +0.000 C 
BRANCH   7   8
ATOM      8  N   UNL     1      44.714   3.736  10.246  0.00  0.00    +0.000 NA
ATOM      9  H   UNL     1      45.511   4.280   9.923  0.00  0.00    +0.000 HD
BRANCH   8  10
ATOM     10  C   UNL     1      44.690   2.467   9.502  0.00  0.00    +0.000 C 
BRANCH  10  11
ATOM     11  C   UNL     1      45.617   2.340   8.317  0.00  0.00    +0.000 A 
ATOM     12  C   UNL     1      45.861   3.489   7.538  0.00  0.00    +0.000 A 
ATOM     13  C   UNL     1      46.850   3.499   6.557  0.00  0.00    +0.000 A 
ATOM     14  C   UNL     1      47.610   2.355   6.339  0.00  0.00    +0.000 A 
ATOM     15  C   UNL     1      47.362   1.200   7.083  0.00  0.00    +0.000 A 
ATOM     16  C   UNL     1      46.370   1.190   8.070  0.00  0.00    +0.000 A 
ENDBRANCH  10  11
ENDBRANCH   8  10
ENDBRANCH   7   8
BRANCH   7  17
ATOM     17  C   UNL     1      43.503   3.534  12.446  0.00  0.00    +0.000 C 
BRANCH  17  19
ATOM     18  C   UNL     1      42.320   5.641  11.768  0.00  0.00    +0.000 C 
ATOM     19  C   UNL     1      43.030   4.914  12.910  0.00  0.00    +0.000 C 
ENDBRANCH  17  19
ENDBRANCH   7  17
ENDBRANCH   1   7
BRANCH   4  20
ATOM     20  C   UNL     1      48.302   7.484  14.303  0.00  0.00    +0.000 C 
BRANCH  20  21
ATOM     21  N   UNL     1      49.499   6.920  14.875  0.00  0.00    +0.000 N 
ATOM     22  C   UNL     1      49.665   6.862  16.235  0.00  0.00    +0.000 C 
ATOM     23  O   UNL     1      48.790   7.235  17.010  0.00  0.00    +0.000 OA
ATOM     24  H   UNL     1      50.304   6.819  14.264  0.00  0.00    +0.000 HD
BRANCH  22  25
ATOM     25  C   UNL     1      50.923   6.280  16.727  0.00  0.00    +0.000 A 
ATOM     26  C   UNL     1      52.069   7.062  16.760  0.00  0.00    +0.000 A 
ATOM     27  S   UNL     1      53.427   6.261  17.407  0.00  0.00    +0.000 S 
ATOM     28  C   UNL     1      52.547   4.822  17.614  0.00  0.00    +0.000 A 
ATOM     29  N   UNL     1      53.139   3.706  18.117  0.00  0.00    +0.000 NA
ATOM     30  C   UNL     1      52.363   2.675  18.192  0.00  0.00    +0.000 A 
ATOM     31  N   UNL     1      51.046   2.665  17.814  0.00  0.00    +0.000 N 
ATOM     32  C   UNL     1      50.395   3.774  17.331  0.00  0.00    +0.000 A 
ATOM     33  O   UNL     1      49.204   3.738  17.042  0.00  0.00    +0.000 OA
ATOM     34  C   UNL     1      51.227   4.957  17.211  0.00  0.00    +0.000 A 
ATOM     35  H   UNL     1      50.490   1.824  17.906  0.00  0.00    +0.000 HD
ENDBRANCH  22  25
ENDBRANCH  20  21
ENDBRANCH   4  20
TORSDOF 9
ENDMDL
MODEL 5
REMARK VINA RESULT:    -7.489      1.817      2.265
REMARK INTER + INTRA:         -12.786
REMARK INTER:                 -11.672
REMARK INTRA:                  -1.114
REMARK UNBOUND:                -1.357
REMARK  Name = 
REMARK  10 active torsions:
REMARK  status: ('A' for Active; 'I' for Inactive)
REMARK    1  A    between atoms: C_1  and  C_2
REMARK    2  A    between atoms: C_2  and  C_3
REMARK    3  A    between atoms: C_3  and  C_4
REMARK    4  A    between atoms: C_4  and  N_5
REMARK    5  A    between atoms: C_4  and  C_13
REMARK    6  A    between atoms: N_5  and  C_6
REMARK    7  A    between atoms: C_6  and  C_7
REMARK    8  A    between atoms: C_16  and  C_17
REMARK    9  A    between atoms: C_17  and  N_18
REMARK   10  A    between atoms: C_19  and  C_21
REMARK                            x       y       z     vdW  Elec       q    Type
REMARK                         _______ _______ _______ _____ _____    ______ ____
ROOT
ATOM      1  C   UNL     1      45.513   5.663  11.525  0.00  0.00    +0.000 A 
ATOM      2  C   UNL     1      46.445   5.278  12.509  0.00  0.00    +0.000 A 
ATOM      3  C   UNL     1      47.089   6.228  13.309  0.00  0.00    +0.000 A 
ATOM      4  C   UNL     1      46.761   7.582  13.201  0.00  0.00    +0.000 A 
ATOM      5  C   UNL     1      45.810   7.971  12.252  0.00  0.00    +0.000 A 
ATOM      6  C   UNL     1      45.204   7.027  11.418  0.00  0.00    +0.000 A 
ENDROOT
BRANCH   1   7
ATOM      7  C   UNL     1      44.973   4.619  10.532  0.00  0.00    +0.000 C 
BRANCH   7   8
ATOM      8  N   UNL     1      45.019   5.119   9.131  0.00  0.00    +0.000 NA
ATOM      9  H   UNL     1      45.970   5.421   8.925  0.00  0.00    +0.000 HD
BRANCH   8  10
ATOM     10  C   UNL     1      44.660   4.053   8.183  0.00  0.00    +0.000 C 
BRANCH  10  11
ATOM     11  C   UNL     1      45.769   3.148   7.702  0.00  0.00    +0.000 A 
ATOM     12  C   UNL     1      45.901   1.881   8.305  0.00  0.00    +0.000 A 
ATOM     13  C   UNL     1      46.766   0.921   7.784  0.00  0.00    +0.000 A 
ATOM     14  C   UNL     1      47.516   1.217   6.650  0.00  0.00    +0.000 A 
ATOM     15  C   UNL     1      47.416   2.478   6.058  0.00  0.00    +0.000 A 
ATOM     16  C   UNL     1      46.546   3.441   6.580  0.00  0.00    +0.000 A 
ENDBRANCH  10  11
ENDBRANCH   8  10
ENDBRANCH   7   8
BRANCH   7  17
ATOM     17  C   UNL     1      43.545   4.159  10.933  0.00  0.00    +0.000 C 
BRANCH  17  19
ATOM     18  C   UNL     1      43.018   4.430  13.372  0.00  0.00    +0.000 C 
ATOM     19  C   UNL     1      43.420   3.440  12.279  0.00  0.00    +0.000 C 
ENDBRANCH  17  19
ENDBRANCH   7  17
ENDBRANCH   1   7
BRANCH   4  20
ATOM     20  C   UNL     1      47.444   8.620  14.050  0.00  0.00    +0.000 C 
BRANCH  20  21
ATOM     21  N   UNL     1      48.398   8.021  14.950  0.00  0.00    +0.000 N 
ATOM     22  C   UNL     1      49.696   7.815  14.558  0.00  0.00    +0.000 C 
ATOM     23  O   UNL     1      50.105   8.178  13.459  0.00  0.00    +0.000 OA
ATOM     24  H   UNL     1      48.030   7.524  15.756  0.00  0.00    +0.000 HD
BRANCH  22  25
ATOM     25  C   UNL     1      50.595   7.189  15.539  0.00  0.00    +0.000 A 
ATOM     26  C   UNL     1      51.927   7.574  15.585  0.00  0.00    +0.000 A 
ATOM     27  S   UNL     1      52.823   6.798  16.811  0.00  0.00    +0.000 S 
ATOM     28  C   UNL     1      51.475   5.879  17.288  0.00  0.00    +0.000 A 
ATOM     29  N   UNL     1      51.568   4.974  18.299  0.00  0.00    +0.000 NA
ATOM     30  C   UNL     1      50.477   4.322  18.537  0.00  0.00    +0.000 A 
ATOM     31  N   UNL     1      49.301   4.501  17.857  0.00  0.00    +0.000 N 
ATOM     32  C   UNL     1      49.149   5.425  16.851  0.00  0.00    +0.000 A 
ATOM     33  O   UNL     1      48.068   5.587  16.293  0.00  0.00    +0.000 OA
ATOM     34  C   UNL     1      50.350   6.174  16.532  0.00  0.00    +0.000 A 
ATOM     35  H   UNL     1      48.479   3.963  18.099  0.00  0.00    +0.000 HD
ENDBRANCH  22  25
ENDBRANCH  20  21
ENDBRANCH   4  20
TORSDOF 9
ENDMDL
MODEL 6
REMARK VINA RESULT:    -7.201      3.157      9.003
REMARK INTER + INTRA:         -12.347
REMARK INTER:                 -10.187
REMARK INTRA:                  -2.160
REMARK UNBOUND:                -1.357
REMARK  Name = 
REMARK  10 active torsions:
REMARK  status: ('A' for Active; 'I' for Inactive)
REMARK    1  A    between atoms: C_1  and  C_2
REMARK    2  A    between atoms: C_2  and  C_3
REMARK    3  A    between atoms: C_3  and  C_4
REMARK    4  A    between atoms: C_4  and  N_5
REMARK    5  A    between atoms: C_4  and  C_13
REMARK    6  A    between atoms: N_5  and  C_6
REMARK    7  A    between atoms: C_6  and  C_7
REMARK    8  A    between atoms: C_16  and  C_17
REMARK    9  A    between atoms: C_17  and  N_18
REMARK   10  A    between atoms: C_19  and  C_21
REMARK                            x       y       z     vdW  Elec       q    Type
REMARK                         _______ _______ _______ _____ _____    ______ ____
ROOT
ATOM      1  C   UNL     1      48.838   7.965  16.208  0.00  0.00    +0.000 A 
ATOM      2  C   UNL     1      48.867   6.747  15.500  0.00  0.00    +0.000 A 
ATOM      3  C   UNL     1      48.440   6.673  14.170  0.00  0.00    +0.000 A 
ATOM      4  C   UNL     1      48.048   7.828  13.487  0.00  0.00    +0.000 A 
ATOM      5  C   UNL     1      48.051   9.048  14.171  0.00  0.00    +0.000 A 
ATOM      6  C   UNL     1      48.429   9.113  15.515  0.00  0.00    +0.000 A 
ENDROOT
BRANCH   1   7
ATOM      7  C   UNL     1      49.122   7.977  17.721  0.00  0.00    +0.000 C 
BRANCH   7   8
ATOM      8  N   UNL     1      48.151   7.133  18.469  0.00  0.00    +0.000 NA
ATOM      9  H   UNL     1      47.483   6.743  17.806  0.00  0.00    +0.000 HD
BRANCH   8  10
ATOM     10  C   UNL     1      48.837   6.018  19.141  0.00  0.00    +0.000 C 
BRANCH  10  11
ATOM     11  C   UNL     1      48.845   4.682  18.438  0.00  0.00    +0.000 A 
ATOM     12  C   UNL     1      47.652   4.246  17.828  0.00  0.00    +0.000 A 
ATOM     13  C   UNL     1      47.634   3.128  16.997  0.00  0.00    +0.000 A 
ATOM     14  C   UNL     1      48.812   2.425  16.767  0.00  0.00    +0.000 A 
ATOM     15  C   UNL     1      49.996   2.829  17.387  0.00  0.00    +0.000 A 
ATOM     16  C   UNL     1      50.015   3.953  18.219  0.00  0.00    +0.000 A 
ENDBRANCH  10  11
ENDBRANCH   8  10
ENDBRANCH   7   8
BRANCH   7  17
ATOM     17  C   UNL     1      49.162   9.431  18.265  0.00  0.00    +0.000 C 
BRANCH  17  19
ATOM     18  C   UNL     1      47.401  11.203  18.505  0.00  0.00    +0.000 C 
ATOM     19  C   UNL     1      47.939   9.887  19.065  0.00  0.00    +0.000 C 
ENDBRANCH  17  19
ENDBRANCH   7  17
ENDBRANCH   1   7
BRANCH   4  20
ATOM     20  C   UNL     1      47.583   7.769  12.057  0.00  0.00    +0.000 C 
BRANCH  20  21
ATOM     21  N   UNL     1      46.913   6.525  11.771  0.00  0.00    +0.000 N 
ATOM     22  C   UNL     1      45.548   6.427  11.871  0.00  0.00    +0.000 C 
ATOM     23  O   UNL     1      44.848   7.395  12.152  0.00  0.00    +0.000 OA
ATOM     24  H   UNL     1      47.479   5.683  11.759  0.00  0.00    +0.000 HD
BRANCH  22  25
ATOM     25  C   UNL     1      44.953   5.116  11.571  0.00  0.00    +0.000 A 
ATOM     26  C   UNL     1      44.252   4.443  12.561  0.00  0.00    +0.000 A 
ATOM     27  S   UNL     1      43.576   2.967  12.041  0.00  0.00    +0.000 S 
ATOM     28  C   UNL     1      44.244   3.148  10.488  0.00  0.00    +0.000 A 
ATOM     29  N   UNL     1      44.060   2.197   9.533  0.00  0.00    +0.000 NA
ATOM     30  C   UNL     1      44.648   2.446   8.409  0.00  0.00    +0.000 A 
ATOM     31  N   UNL     1      45.397   3.565   8.155  0.00  0.00    +0.000 N 
ATOM     32  C   UNL     1      45.584   4.567   9.076  0.00  0.00    +0.000 A 
ATOM     33  O   UNL     1      46.227   5.575   8.799  0.00  0.00    +0.000 OA
ATOM     34  C   UNL     1      44.958   4.330  10.363  0.00  0.00    +0.000 A 
ATOM     35  H   UNL     1      45.825   3.703   7.249  0.00  0.00    +0.000 HD
ENDBRANCH  22  25
ENDBRANCH  20  21
ENDBRANCH   4  20
TORSDOF 9
ENDMDL
MODEL 7
REMARK VINA RESULT:    -7.098      3.328      5.793
REMARK INTER + INTRA:         -12.190
REMARK INTER:                 -10.201
REMARK INTRA:                  -1.989
REMARK UNBOUND:                -1.357
REMARK  Name = 
REMARK  10 active torsions:
REMARK  status: ('A' for Active; 'I' for Inactive)
REMARK    1  A    between atoms: C_1  and  C_2
REMARK    2  A    between atoms: C_2  and  C_3
REMARK    3  A    between atoms: C_3  and  C_4
REMARK    4  A    between atoms: C_4  and  N_5
REMARK    5  A    between atoms: C_4  and  C_13
REMARK    6  A    between atoms: N_5  and  C_6
REMARK    7  A    between atoms: C_6  and  C_7
REMARK    8  A    between atoms: C_16  and  C_17
REMARK    9  A    between atoms: C_17  and  N_18
REMARK   10  A    between atoms: C_19  and  C_21
REMARK                            x       y       z     vdW  Elec       q    Type
REMARK                         _______ _______ _______ _____ _____    ______ ____
ROOT
ATOM      1  C   UNL     1      47.688   6.160  14.684  0.00  0.00    +0.000 A 
ATOM      2  C   UNL     1      47.057   4.913  14.506  0.00  0.00    +0.000 A 
ATOM      3  C   UNL     1      47.231   3.875  15.427  0.00  0.00    +0.000 A 
ATOM      4  C   UNL     1      47.977   4.080  16.592  0.00  0.00    +0.000 A 
ATOM      5  C   UNL     1      48.576   5.327  16.795  0.00  0.00    +0.000 A 
ATOM      6  C   UNL     1      48.444   6.348  15.849  0.00  0.00    +0.000 A 
ENDROOT
BRANCH   1   7
ATOM      7  C   UNL     1      47.639   7.210  13.559  0.00  0.00    +0.000 C 
BRANCH   7   8
ATOM      8  N   UNL     1      46.241   7.595  13.228  0.00  0.00    +0.000 NA
ATOM      9  H   UNL     1      46.180   8.612  13.209  0.00  0.00    +0.000 HD
BRANCH   8  10
ATOM     10  C   UNL     1      45.859   7.086  11.902  0.00  0.00    +0.000 C 
BRANCH  10  11
ATOM     11  C   UNL     1      44.907   5.914  11.855  0.00  0.00    +0.000 A 
ATOM     12  C   UNL     1      45.126   4.920  10.881  0.00  0.00    +0.000 A 
ATOM     13  C   UNL     1      44.417   3.721  10.903  0.00  0.00    +0.000 A 
ATOM     14  C   UNL     1      43.475   3.499  11.902  0.00  0.00    +0.000 A 
ATOM     15  C   UNL     1      43.228   4.487  12.858  0.00  0.00    +0.000 A 
ATOM     16  C   UNL     1      43.941   5.690  12.837  0.00  0.00    +0.000 A 
ENDBRANCH  10  11
ENDBRANCH   8  10
ENDBRANCH   7   8
BRANCH   7  17
ATOM     17  C   UNL     1      48.413   6.714  12.307  0.00  0.00    +0.000 C 
BRANCH  17  19
ATOM     18  C   UNL     1      49.184   9.026  11.706  0.00  0.00    +0.000 C 
ATOM     19  C   UNL     1      49.607   7.567  11.869  0.00  0.00    +0.000 C 
ENDBRANCH  17  19
ENDBRANCH   7  17
ENDBRANCH   1   7
BRANCH   4  20
ATOM     20  C   UNL     1      48.179   2.975  17.594  0.00  0.00    +0.000 C 
BRANCH  20  21
ATOM     21  N   UNL     1      49.572   2.816  17.929  0.00  0.00    +0.000 N 
ATOM     22  C   UNL     1      50.405   2.082  17.124  0.00  0.00    +0.000 C 
ATOM     23  O   UNL     1      50.016   1.583  16.072  0.00  0.00    +0.000 OA
ATOM     24  H   UNL     1      49.848   3.025  18.883  0.00  0.00    +0.000 HD
BRANCH  22  25
ATOM     25  C   UNL     1      51.807   1.965  17.551  0.00  0.00    +0.000 A 
ATOM     26  C   UNL     1      52.356   0.705  17.751  0.00  0.00    +0.000 A 
ATOM     27  S   UNL     1      54.003   0.736  18.189  0.00  0.00    +0.000 S 
ATOM     28  C   UNL     1      54.028   2.436  18.180  0.00  0.00    +0.000 A 
ATOM     29  N   UNL     1      55.160   3.120  18.496  0.00  0.00    +0.000 NA
ATOM     30  C   UNL     1      55.031   4.407  18.481  0.00  0.00    +0.000 A 
ATOM     31  N   UNL     1      53.871   5.067  18.169  0.00  0.00    +0.000 N 
ATOM     32  C   UNL     1      52.713   4.421  17.811  0.00  0.00    +0.000 A 
ATOM     33  O   UNL     1      51.705   5.047  17.498  0.00  0.00    +0.000 OA
ATOM     34  C   UNL     1      52.798   2.973  17.829  0.00  0.00    +0.000 A 
ATOM     35  H   UNL     1      53.840   6.079  18.167  0.00  0.00    +0.000 HD
ENDBRANCH  22  25
ENDBRANCH  20  21
ENDBRANCH   4  20
TORSDOF 9
ENDMDL
MODEL 8
REMARK VINA RESULT:    -7.051      3.496      5.333
REMARK INTER + INTRA:         -12.117
REMARK INTER:                 -10.790
REMARK INTRA:                  -1.327
REMARK UNBOUND:                -1.357
REMARK  Name = 
REMARK  10 active torsions:
REMARK  status: ('A' for Active; 'I' for Inactive)
REMARK    1  A    between atoms: C_1  and  C_2
REMARK    2  A    between atoms: C_2  and  C_3
REMARK    3  A    between atoms: C_3  and  C_4
REMARK    4  A    between atoms: C_4  and  N_5
REMARK    5  A    between atoms: C_4  and  C_13
REMARK    6  A    between atoms: N_5  and  C_6
REMARK    7  A    between atoms: C_6  and  C_7
REMARK    8  A    between atoms: C_16  and  C_17
REMARK    9  A    between atoms: C_17  and  N_18
REMARK   10  A    between atoms: C_19  and  C_21
REMARK                            x       y       z     vdW  Elec       q    Type
REMARK                         _______ _______ _______ _____ _____    ______ ____
ROOT
ATOM      1  C   UNL     1      45.971   5.703  11.833  0.00  0.00    +0.000 A 
ATOM      2  C   UNL     1      46.297   4.950  12.978  0.00  0.00    +0.000 A 
ATOM      3  C   UNL     1      47.303   5.365  13.856  0.00  0.00    +0.000 A 
ATOM      4  C   UNL     1      47.958   6.584  13.656  0.00  0.00    +0.000 A 
ATOM      5  C   UNL     1      47.615   7.357  12.542  0.00  0.00    +0.000 A 
ATOM      6  C   UNL     1      46.645   6.917  11.637  0.00  0.00    +0.000 A 
ENDROOT
BRANCH   1   7
ATOM      7  C   UNL     1      45.004   5.123  10.785  0.00  0.00    +0.000 C 
BRANCH   7   8
ATOM      8  N   UNL     1      45.539   5.269   9.404  0.00  0.00    +0.000 NA
ATOM      9  H   UNL     1      46.549   5.141   9.432  0.00  0.00    +0.000 HD
BRANCH   8  10
ATOM     10  C   UNL     1      44.969   4.246   8.513  0.00  0.00    +0.000 C 
BRANCH  10  11
ATOM     11  C   UNL     1      45.924   3.249   7.902  0.00  0.00    +0.000 A 
ATOM     12  C   UNL     1      45.945   1.941   8.428  0.00  0.00    +0.000 A 
ATOM     13  C   UNL     1      46.648   0.920   7.794  0.00  0.00    +0.000 A 
ATOM     14  C   UNL     1      47.345   1.192   6.622  0.00  0.00    +0.000 A 
ATOM     15  C   UNL     1      47.356   2.489   6.103  0.00  0.00    +0.000 A 
ATOM     16  C   UNL     1      46.649   3.514   6.739  0.00  0.00    +0.000 A 
ENDBRANCH  10  11
ENDBRANCH   8  10
ENDBRANCH   7   8
BRANCH   7  17
ATOM     17  C   UNL     1      43.592   5.754  10.926  0.00  0.00    +0.000 C 
BRANCH  17  19
ATOM     18  C   UNL     1      42.831   4.952  13.180  0.00  0.00    +0.000 C 
ATOM     19  C   UNL     1      42.551   4.920  11.678  0.00  0.00    +0.000 C 
ENDBRANCH  17  19
ENDBRANCH   7  17
ENDBRANCH   1   7
BRANCH   4  20
ATOM     20  C   UNL     1      49.045   7.048  14.588  0.00  0.00    +0.000 C 
BRANCH  20  21
ATOM     21  N   UNL     1      49.944   7.965  13.933  0.00  0.00    +0.000 N 
ATOM     22  C   UNL     1      51.238   8.104  14.365  0.00  0.00    +0.000 C 
ATOM     23  O   UNL     1      51.693   7.422  15.279  0.00  0.00    +0.000 OA
ATOM     24  H   UNL     1      49.531   8.679  13.341  0.00  0.00    +0.000 HD
BRANCH  22  25
ATOM     25  C   UNL     1      52.079   9.071  13.644  0.00  0.00    +0.000 A 
ATOM     26  C   UNL     1      52.758  10.049  14.357  0.00  0.00    +0.000 A 
ATOM     27  S   UNL     1      53.731  11.056  13.385  0.00  0.00    +0.000 S 
ATOM     28  C   UNL     1      53.237  10.256  11.969  0.00  0.00    +0.000 A 
ATOM     29  N   UNL     1      53.695  10.647  10.750  0.00  0.00    +0.000 NA
ATOM     30  C   UNL     1      53.214   9.974   9.756  0.00  0.00    +0.000 A 
ATOM     31  N   UNL     1      52.323   8.939   9.877  0.00  0.00    +0.000 N 
ATOM     32  C   UNL     1      51.858   8.488  11.088  0.00  0.00    +0.000 A 
ATOM     33  O   UNL     1      51.092   7.532  11.159  0.00  0.00    +0.000 OA
ATOM     34  C   UNL     1      52.354   9.221  12.237  0.00  0.00    +0.000 A 
ATOM     35  H   UNL     1      51.992   8.447   9.057  0.00  0.00    +0.000 HD
ENDBRANCH  22  25
ENDBRANCH  20  21
ENDBRANCH   4  20
TORSDOF 9
ENDMDL
MODEL 9
REMARK VINA RESULT:    -7.018      3.469      8.844
REMARK INTER + INTRA:         -12.067
REMARK INTER:                  -9.211
REMARK INTRA:                  -2.856
REMARK UNBOUND:                -1.357
REMARK  Name = 
REMARK  10 active torsions:
REMARK  status: ('A' for Active; 'I' for Inactive)
REMARK    1  A    between atoms: C_1  and  C_2
REMARK    2  A    between atoms: C_2  and  C_3
REMARK    3  A    between atoms: C_3  and  C_4
REMARK    4  A    between atoms: C_4  and  N_5
REMARK    5  A    between atoms: C_4  and  C_13
REMARK    6  A    between atoms: N_5  and  C_6
REMARK    7  A    between atoms: C_6  and  C_7
REMARK    8  A    between atoms: C_16  and  C_17
REMARK    9  A    between atoms: C_17  and  N_18
REMARK   10  A    between atoms: C_19  and  C_21
REMARK                            x       y       z     vdW  Elec       q    Type
REMARK                         _______ _______ _______ _____ _____    ______ ____
ROOT
ATOM      1  C   UNL     1      49.436   7.473  18.679  0.00  0.00    +0.000 A 
ATOM      2  C   UNL     1      50.202   6.953  17.617  0.00  0.00    +0.000 A 
ATOM      3  C   UNL     1      49.869   7.220  16.285  0.00  0.00    +0.000 A 
ATOM      4  C   UNL     1      48.809   8.078  15.979  0.00  0.00    +0.000 A 
ATOM      5  C   UNL     1      48.065   8.629  17.028  0.00  0.00    +0.000 A 
ATOM      6  C   UNL     1      48.367   8.320  18.358  0.00  0.00    +0.000 A 
ENDROOT
BRANCH   1   7
ATOM      7  C   UNL     1      49.706   7.001  20.119  0.00  0.00    +0.000 C 
BRANCH   7   8
ATOM      8  N   UNL     1      50.135   5.577  20.159  0.00  0.00    +0.000 NA
ATOM      9  H   UNL     1      50.671   5.423  21.012  0.00  0.00    +0.000 HD
BRANCH   8  10
ATOM     10  C   UNL     1      48.969   4.680  20.180  0.00  0.00    +0.000 C 
BRANCH  10  11
ATOM     11  C   UNL     1      48.545   4.062  18.869  0.00  0.00    +0.000 A 
ATOM     12  C   UNL     1      47.419   4.600  18.215  0.00  0.00    +0.000 A 
ATOM     13  C   UNL     1      47.088   4.218  16.916  0.00  0.00    +0.000 A 
ATOM     14  C   UNL     1      47.880   3.286  16.254  0.00  0.00    +0.000 A 
ATOM     15  C   UNL     1      48.983   2.723  16.900  0.00  0.00    +0.000 A 
ATOM     16  C   UNL     1      49.316   3.109  18.202  0.00  0.00    +0.000 A 
ENDBRANCH  10  11
ENDBRANCH   8  10
ENDBRANCH   7   8
BRANCH   7  17
ATOM     17  C   UNL     1      48.471   7.257  21.025  0.00  0.00    +0.000 C 
BRANCH  17  19
ATOM     18  C   UNL     1      47.223   9.185  22.038  0.00  0.00    +0.000 C 
ATOM     19  C   UNL     1      48.564   8.455  21.973  0.00  0.00    +0.000 C 
ENDBRANCH  17  19
ENDBRANCH   7  17
ENDBRANCH   1   7
BRANCH   4  20
ATOM     20  C   UNL     1      48.433   8.376  14.553  0.00  0.00    +0.000 C 
BRANCH  20  21
ATOM     21  N   UNL     1      47.379   7.507  14.092  0.00  0.00    +0.000 N 
ATOM     22  C   UNL     1      47.665   6.410  13.320  0.00  0.00    +0.000 C 
ATOM     23  O   UNL     1      48.819   6.098  13.040  0.00  0.00    +0.000 OA
ATOM     24  H   UNL     1      46.430   7.867  14.125  0.00  0.00    +0.000 HD
BRANCH  22  25
ATOM     25  C   UNL     1      46.526   5.587  12.888  0.00  0.00    +0.000 A 
ATOM     26  C   UNL     1      46.577   4.210  13.058  0.00  0.00    +0.000 A 
ATOM     27  S   UNL     1      45.159   3.405  12.560  0.00  0.00    +0.000 S 
ATOM     28  C   UNL     1      44.448   4.861  12.049  0.00  0.00    +0.000 A 
ATOM     29  N   UNL     1      43.208   4.875  11.489  0.00  0.00    +0.000 NA
ATOM     30  C   UNL     1      42.801   6.045  11.117  0.00  0.00    +0.000 A 
ATOM     31  N   UNL     1      43.523   7.201  11.263  0.00  0.00    +0.000 N 
ATOM     32  C   UNL     1      44.764   7.242  11.851  0.00  0.00    +0.000 A 
ATOM     33  O   UNL     1      45.362   8.302  12.002  0.00  0.00    +0.000 OA
ATOM     34  C   UNL     1      45.276   5.951  12.272  0.00  0.00    +0.000 A 
ATOM     35  H   UNL     1      43.142   8.087  10.957  0.00  0.00    +0.000 HD
ENDBRANCH  22  25
ENDBRANCH  20  21
ENDBRANCH   4  20
TORSDOF 9
ENDMDL
