MODEL 1
REMARK VINA RESULT:    -7.945      0.000      0.000
REMARK INTER + INTRA:         -11.743
REMARK INTER:                 -10.965
REMARK INTRA:                  -0.778
REMARK UNBOUND:                -0.778
REMARK  Name = 
REMARK  8 active torsions:
REMARK  status: ('A' for Active; 'I' for Inactive)
REMARK    1  A    between atoms: C_1  and  C_2
REMARK    2  A    between atoms: C_2  and  C_3
REMARK    3  A    between atoms: C_2  and  O_12
REMARK    4  A    between atoms: C_3  and  C_4
REMARK    5  A    between atoms: C_8  and  C_9
REMARK    6  A    between atoms: C_9  and  N_10
REMARK    7  A    between atoms: O_12  and  C_13
REMARK    8  A    between atoms: C_16  and  C_17
REMARK                            x       y       z     vdW  Elec       q    Type
REMARK                         _______ _______ _______ _____ _____    ______ ____
ROOT
ATOM      1  C   UNL     1      42.454   5.402  11.848  0.00  0.00    +0.000 C 
ATOM      2  C   UNL     1      43.790   5.142  11.155  0.00  0.00    +0.000 C 
ENDROOT
BRANCH   2   3
ATOM      3  C   UNL     1      44.724   6.369  11.187  0.00  0.00    +0.000 C 
BRANCH   3   4
ATOM      4  C   UNL     1      45.976   6.254  12.025  0.00  0.00    +0.000 A 
ATOM      5  C   UNL     1      47.095   7.052  11.758  0.00  0.00    +0.000 A 
ATOM      6  C   UNL     1      48.218   6.994  12.585  0.00  0.00    +0.000 A 
ATOM      7  C   UNL     1      48.229   6.148  13.695  0.00  0.00    +0.000 A 
ATOM      8  C   UNL     1      47.123   5.339  13.981  0.00  0.00    +0.000 A 
ATOM      9  C   UNL     1      46.009   5.387  13.127  0.00  0.00    +0.000 A 
BRANCH   8  10
ATOM     10  C   UNL     1      47.119   4.427  15.182  0.00  0.00    +0.000 C 
BRANCH  10  11
ATOM     11  N   UNL     1      47.660   3.110  14.857  0.00  0.00    +0.000 NA
ATOM     12  H   UNL     1      48.541   3.233  14.360  0.00  0.00    +0.000 HD
ATOM     13  H   UNL     1      47.028   2.635  14.219  0.00  0.00    +0.000 HD
ENDBRANCH  10  11
ENDBRANCH   8  10
ENDBRANCH   3   4
ENDBRANCH   2   3
BRANCH   2  14
ATOM     14  O   UNL     1      43.534   4.691   9.815  0.00  0.00    +0.000 OA
BRANCH  14  15
ATOM     15  C   UNL     1      44.393   3.783   9.258  0.00  0.00    +0.000 A 
ATOM     16  C   UNL     1      45.284   4.283   8.308  0.00  0.00    +0.000 A 
ATOM     17  C   UNL     1      46.200   3.428   7.689  0.00  0.00    +0.000 A 
ATOM     18  C   UNL     1      46.189   2.087   8.051  0.00  0.00    +0.000 A 
ATOM     19  N   UNL     1      45.333   1.560   8.969  0.00  0.00    +0.000 NA
ATOM     20  C   UNL     1      44.463   2.424   9.544  0.00  0.00    +0.000 A 
BRANCH  18  21
ATOM     21  C   UNL     1      47.152   1.122   7.435  0.00  0.00    +0.000 C 
ATOM     22  N   UNL     1      48.124   1.696   6.657  0.00  0.00    +0.000 N 
ATOM     23  O   UNL     1      47.083  -0.088   7.601  0.00  0.00    +0.000 OA
ATOM     24  H   UNL     1      48.127   2.704   6.531  0.00  0.00    +0.000 HD
ATOM     25  H   UNL     1      48.796   1.115   6.180  0.00  0.00    +0.000 HD
ENDBRANCH  18  21
ENDBRANCH  14  15
ENDBRANCH   2  14
TORSDOF 7
ENDMDL
MODEL 2
REMARK VINA RESULT:    -7.187      2.463      6.687
REMARK INTER + INTRA:         -10.697
REMARK INTER:                 -10.000
REMARK INTRA:                  -0.697
REMARK UNBOUND:                -0.778
REMARK  Name = 
REMARK  8 active torsions:
REMARK  status: ('A' for Active; 'I' for Inactive)
REMARK    1  A    between atoms: C_1  and  C_2
REMARK    2  A    between atoms: C_2  and  C_3
REMARK    3  A    between atoms: C_2  and  O_12
REMARK    4  A    between atoms: C_3  and  C_4
REMARK    5  A    between atoms: C_8  and  C_9
REMARK    6  A    between atoms: C_9  and  N_10
REMARK    7  A    between atoms: O_12  and  C_13
REMARK    8  A    between atoms: C_16  and  C_17
REMARK                            x       y       z     vdW  Elec       q    Type
REMARK                         _______ _______ _______ _____ _____    ______ ____
ROOT
ATOM      1  C   UNL     1      42.845   4.235  11.798  0.00  0.00    +0.000 C 
ATOM      2  C   UNL     1      44.291   3.845  11.499  0.00  0.00    +0.000 C 
ENDROOT
BRANCH   2   3
ATOM      3  C   UNL     1      44.399   2.727  10.442  0.00  0.00    +0.000 C 
BRANCH   3   4
ATOM      4  C   UNL     1      45.219   3.029   9.209  0.00  0.00    +0.000 A 
ATOM      5  C   UNL     1      45.430   4.348   8.792  0.00  0.00    +0.000 A 
ATOM      6  C   UNL     1      46.251   4.620   7.696  0.00  0.00    +0.000 A 
ATOM      7  C   UNL     1      46.881   3.578   7.015  0.00  0.00    +0.000 A 
ATOM      8  C   UNL     1      46.683   2.250   7.412  0.00  0.00    +0.000 A 
ATOM      9  C   UNL     1      45.834   1.987   8.499  0.00  0.00    +0.000 A 
BRANCH   8  10
ATOM     10  C   UNL     1      47.365   1.115   6.690  0.00  0.00    +0.000 C 
BRANCH  10  11
ATOM     11  N   UNL     1      48.438   1.598   5.826  0.00  0.00    +0.000 NA
ATOM     12  H   UNL     1      48.448   2.616   5.856  0.00  0.00    +0.000 HD
ATOM     13  H   UNL     1      48.239   1.337   4.864  0.00  0.00    +0.000 HD
ENDBRANCH  10  11
ENDBRANCH   8  10
ENDBRANCH   3   4
ENDBRANCH   2   3
BRANCH   2  14
ATOM     14  O   UNL     1      44.936   3.487  12.733  0.00  0.00    +0.000 OA
BRANCH  14  15
ATOM     15  C   UNL     1      45.882   4.335  13.243  0.00  0.00    +0.000 A 
ATOM     16  C   UNL     1      45.968   5.591  12.644  0.00  0.00    +0.000 A 
ATOM     17  C   UNL     1      46.903   6.523  13.103  0.00  0.00    +0.000 A 
ATOM     18  C   UNL     1      47.727   6.155  14.158  0.00  0.00    +0.000 A 
ATOM     19  N   UNL     1      47.677   4.938  14.766  0.00  0.00    +0.000 NA
ATOM     20  C   UNL     1      46.757   4.067  14.290  0.00  0.00    +0.000 A 
BRANCH  18  21
ATOM     21  C   UNL     1      48.740   7.111  14.704  0.00  0.00    +0.000 C 
ATOM     22  N   UNL     1      48.220   8.140  15.446  0.00  0.00    +0.000 N 
ATOM     23  O   UNL     1      49.942   6.996  14.505  0.00  0.00    +0.000 OA
ATOM     24  H   UNL     1      47.214   8.206  15.565  0.00  0.00    +0.000 HD
ATOM     25  H   UNL     1      48.832   8.846  15.825  0.00  0.00    +0.000 HD
ENDBRANCH  18  21
ENDBRANCH  14  15
ENDBRANCH   2  14
TORSDOF 7
ENDMDL
MODEL 3
REMARK VINA RESULT:    -7.155      1.747      2.193
REMARK INTER + INTRA:         -10.652
REMARK INTER:                 -10.093
REMARK INTRA:                  -0.559
REMARK UNBOUND:                -0.778
REMARK  Name = 
REMARK  8 active torsions:
REMARK  status: ('A' for Active; 'I' for Inactive)
REMARK    1  A    between atoms: C_1  and  C_2
REMARK    2  A    between atoms: C_2  and  C_3
REMARK    3  A    between atoms: C_2  and  O_12
REMARK    4  A    between atoms: C_3  and  C_4
REMARK    5  A    between atoms: C_8  and  C_9
REMARK    6  A    between atoms: C_9  and  N_10
REMARK    7  A    between atoms: O_12  and  C_13
REMARK    8  A    between atoms: C_16  and  C_17
REMARK                            x       y       z     vdW  Elec       q    Type
REMARK                         _______ _______ _______ _____ _____    ______ ____
ROOT
ATOM      1  C   UNL     1      43.248   4.010  12.764  0.00  0.00    +0.000 C 
ATOM      2  C   UNL     1      44.013   4.477  11.527  0.00  0.00    +0.000 C 
ENDROOT
BRANCH   2   3
ATOM      3  C   UNL     1      43.855   5.989  11.265  0.00  0.00    +0.000 C 
BRANCH   3   4
ATOM      4  C   UNL     1      44.922   6.896  11.832  0.00  0.00    +0.000 A 
ATOM      5  C   UNL     1      44.779   8.288  11.788  0.00  0.00    +0.000 A 
ATOM      6  C   UNL     1      45.733   9.116  12.383  0.00  0.00    +0.000 A 
ATOM      7  C   UNL     1      46.832   8.561  13.039  0.00  0.00    +0.000 A 
ATOM      8  C   UNL     1      46.999   7.172  13.094  0.00  0.00    +0.000 A 
ATOM      9  C   UNL     1      46.046   6.351  12.470  0.00  0.00    +0.000 A 
BRANCH   8  10
ATOM     10  C   UNL     1      48.177   6.560  13.808  0.00  0.00    +0.000 C 
BRANCH  10  11
ATOM     11  N   UNL     1      49.397   6.660  13.011  0.00  0.00    +0.000 NA
ATOM     12  H   UNL     1      49.788   7.594  13.129  0.00  0.00    +0.000 HD
ATOM     13  H   UNL     1      49.165   6.563  12.026  0.00  0.00    +0.000 HD
ENDBRANCH  10  11
ENDBRANCH   8  10
ENDBRANCH   3   4
ENDBRANCH   2   3
BRANCH   2  14
ATOM     14  O   UNL     1      43.597   3.687  10.401  0.00  0.00    +0.000 OA
BRANCH  14  15
ATOM     15  C   UNL     1      44.516   3.407   9.426  0.00  0.00    +0.000 A 
ATOM     16  C   UNL     1      44.961   2.088   9.362  0.00  0.00    +0.000 A 
ATOM     17  C   UNL     1      45.898   1.711   8.395  0.00  0.00    +0.000 A 
ATOM     18  C   UNL     1      46.357   2.684   7.518  0.00  0.00    +0.000 A 
ATOM     19  N   UNL     1      45.951   3.982   7.550  0.00  0.00    +0.000 NA
ATOM     20  C   UNL     1      45.043   4.304   8.502  0.00  0.00    +0.000 A 
BRANCH  18  21
ATOM     21  C   UNL     1      47.350   2.343   6.452  0.00  0.00    +0.000 C 
ATOM     22  N   UNL     1      47.281   3.125   5.328  0.00  0.00    +0.000 N 
ATOM     23  O   UNL     1      48.162   1.434   6.562  0.00  0.00    +0.000 OA
ATOM     24  H   UNL     1      46.575   3.853   5.275  0.00  0.00    +0.000 HD
ATOM     25  H   UNL     1      47.895   2.943   4.549  0.00  0.00    +0.000 HD
ENDBRANCH  18  21
ENDBRANCH  14  15
ENDBRANCH   2  14
TORSDOF 7
ENDMDL
MODEL 4
REMARK VINA RESULT:    -6.910      2.556      3.443
REMARK INTER + INTRA:         -10.314
REMARK INTER:                 -10.031
REMARK INTRA:                  -0.283
REMARK UNBOUND:                -0.778
REMARK  Name = 
REMARK  8 active torsions:
REMARK  status: ('A' for Active; 'I' for Inactive)
REMARK    1  A    between atoms: C_1  and  C_2
REMARK    2  A    between atoms: C_2  and  C_3
REMARK    3  A    between atoms: C_2  and  O_12
REMARK    4  A    between atoms: C_3  and  C_4
REMARK    5  A    between atoms: C_8  and  C_9
REMARK    6  A    between atoms: C_9  and  N_10
REMARK    7  A    between atoms: O_12  and  C_13
REMARK    8  A    between atoms: C_16  and  C_17
REMARK                            x       y       z     vdW  Elec       q    Type
REMARK                         _______ _______ _______ _____ _____    ______ ____
ROOT
ATOM      1  C   UNL     1      43.110   4.809  12.628  0.00  0.00    +0.000 C 
ATOM      2  C   UNL     1      44.212   4.158  11.794  0.00  0.00    +0.000 C 
ENDROOT
BRANCH   2   3
ATOM      3  C   UNL     1      45.525   4.967  11.808  0.00  0.00    +0.000 C 
BRANCH   3   4
ATOM      4  C   UNL     1      45.411   6.453  12.060  0.00  0.00    +0.000 A 
ATOM      5  C   UNL     1      46.188   7.076  13.043  0.00  0.00    +0.000 A 
ATOM      6  C   UNL     1      46.132   8.460  13.216  0.00  0.00    +0.000 A 
ATOM      7  C   UNL     1      45.309   9.237  12.400  0.00  0.00    +0.000 A 
ATOM      8  C   UNL     1      44.521   8.636  11.411  0.00  0.00    +0.000 A 
ATOM      9  C   UNL     1      44.567   7.240  11.264  0.00  0.00    +0.000 A 
BRANCH   8  10
ATOM     10  C   UNL     1      43.635   9.464  10.515  0.00  0.00    +0.000 C 
BRANCH  10  11
ATOM     11  N   UNL     1      42.274   9.547  11.037  0.00  0.00    +0.000 NA
ATOM     12  H   UNL     1      42.298  10.025  11.937  0.00  0.00    +0.000 HD
ATOM     13  H   UNL     1      41.924   8.609  11.213  0.00  0.00    +0.000 HD
ENDBRANCH  10  11
ENDBRANCH   8  10
ENDBRANCH   3   4
ENDBRANCH   2   3
BRANCH   2  14
ATOM     14  O   UNL     1      43.719   3.950  10.460  0.00  0.00    +0.000 OA
BRANCH  14  15
ATOM     15  C   UNL     1      44.612   3.607   9.482  0.00  0.00    +0.000 A 
ATOM     16  C   UNL     1      44.955   2.257   9.409  0.00  0.00    +0.000 A 
ATOM     17  C   UNL     1      45.858   1.816   8.438  0.00  0.00    +0.000 A 
ATOM     18  C   UNL     1      46.390   2.756   7.565  0.00  0.00    +0.000 A 
ATOM     19  N   UNL     1      46.084   4.082   7.607  0.00  0.00    +0.000 NA
ATOM     20  C   UNL     1      45.206   4.466   8.562  0.00  0.00    +0.000 A 
BRANCH  18  21
ATOM     21  C   UNL     1      47.352   2.346   6.496  0.00  0.00    +0.000 C 
ATOM     22  N   UNL     1      47.313   3.113   5.361  0.00  0.00    +0.000 N 
ATOM     23  O   UNL     1      48.115   1.396   6.612  0.00  0.00    +0.000 OA
ATOM     24  H   UNL     1      46.646   3.878   5.302  0.00  0.00    +0.000 HD
ATOM     25  H   UNL     1      47.908   2.887   4.579  0.00  0.00    +0.000 HD
ENDBRANCH  18  21
ENDBRANCH  14  15
ENDBRANCH   2  14
TORSDOF 7
ENDMDL
MODEL 5
REMARK VINA RESULT:    -6.857      1.435      2.113
REMARK INTER + INTRA:         -10.241
REMARK INTER:                  -9.809
REMARK INTRA:                  -0.433
REMARK UNBOUND:                -0.778
REMARK  Name = 
REMARK  8 active torsions:
REMARK  status: ('A' for Active; 'I' for Inactive)
REMARK    1  A    between atoms: C_1  and  C_2
REMARK    2  A    between atoms: C_2  and  C_3
REMARK    3  A    between atoms: C_2  and  O_12
REMARK    4  A    between atoms: C_3  and  C_4
REMARK    5  A    between atoms: C_8  and  C_9
REMARK    6  A    between atoms: C_9  and  N_10
REMARK    7  A    between atoms: O_12  and  C_13
REMARK    8  A    between atoms: C_16  and  C_17
REMARK                            x       y       z     vdW  Elec       q    Type
REMARK                         _______ _______ _______ _____ _____    ______ ____
ROOT
ATOM      1  C   UNL     1      43.012   6.353  11.393  0.00  0.00    +0.000 C 
ATOM      2  C   UNL     1      43.991   5.233  11.043  0.00  0.00    +0.000 C 
ENDROOT
BRANCH   2   3
ATOM      3  C   UNL     1      45.461   5.700  11.070  0.00  0.00    +0.000 C 
BRANCH   3   4
ATOM      4  C   UNL     1      46.184   5.610  12.394  0.00  0.00    +0.000 A 
ATOM      5  C   UNL     1      46.018   4.500  13.229  0.00  0.00    +0.000 A 
ATOM      6  C   UNL     1      46.748   4.391  14.413  0.00  0.00    +0.000 A 
ATOM      7  C   UNL     1      47.662   5.384  14.768  0.00  0.00    +0.000 A 
ATOM      8  C   UNL     1      47.844   6.505  13.950  0.00  0.00    +0.000 A 
ATOM      9  C   UNL     1      47.084   6.616  12.774  0.00  0.00    +0.000 A 
BRANCH   8  10
ATOM     10  C   UNL     1      48.835   7.581  14.317  0.00  0.00    +0.000 C 
BRANCH  10  11
ATOM     11  N   UNL     1      50.196   7.206  13.943  0.00  0.00    +0.000 NA
ATOM     12  H   UNL     1      50.176   6.271  13.538  0.00  0.00    +0.000 HD
ATOM     13  H   UNL     1      50.771   7.150  14.780  0.00  0.00    +0.000 HD
ENDBRANCH  10  11
ENDBRANCH   8  10
ENDBRANCH   3   4
ENDBRANCH   2   3
BRANCH   2  14
ATOM     14  O   UNL     1      43.622   4.679   9.770  0.00  0.00    +0.000 OA
BRANCH  14  15
ATOM     15  C   UNL     1      44.539   3.911   9.104  0.00  0.00    +0.000 A 
ATOM     16  C   UNL     1      44.512   2.544   9.379  0.00  0.00    +0.000 A 
ATOM     17  C   UNL     1      45.410   1.684   8.742  0.00  0.00    +0.000 A 
ATOM     18  C   UNL     1      46.312   2.233   7.841  0.00  0.00    +0.000 A 
ATOM     19  N   UNL     1      46.374   3.561   7.548  0.00  0.00    +0.000 NA
ATOM     20  C   UNL     1      45.485   4.358   8.188  0.00  0.00    +0.000 A 
BRANCH  18  21
ATOM     21  C   UNL     1      47.291   1.365   7.117  0.00  0.00    +0.000 C 
ATOM     22  N   UNL     1      48.315   2.038   6.502  0.00  0.00    +0.000 N 
ATOM     23  O   UNL     1      47.193   0.146   7.065  0.00  0.00    +0.000 OA
ATOM     24  H   UNL     1      48.342   3.053   6.554  0.00  0.00    +0.000 HD
ATOM     25  H   UNL     1      49.002   1.531   5.966  0.00  0.00    +0.000 HD
ENDBRANCH  18  21
ENDBRANCH  14  15
ENDBRANCH   2  14
TORSDOF 7
ENDMDL
MODEL 6
REMARK VINA RESULT:    -6.584      2.705      3.348
REMARK INTER + INTRA:          -9.864
REMARK INTER:                  -9.319
REMARK INTRA:                  -0.545
REMARK UNBOUND:                -0.778
REMARK  Name = 
REMARK  8 active torsions:
REMARK  status: ('A' for Active; 'I' for Inactive)
REMARK    1  A    between atoms: C_1  and  C_2
REMARK    2  A    between atoms: C_2  and  C_3
REMARK    3  A    between atoms: C_2  and  O_12
REMARK    4  A    between atoms: C_3  and  C_4
REMARK    5  A    between atoms: C_8  and  C_9
REMARK    6  A    between atoms: C_9  and  N_10
REMARK    7  A    between atoms: O_12  and  C_13
REMARK    8  A    between atoms: C_16  and  C_17
REMARK                            x       y       z     vdW  Elec       q    Type
REMARK                         _______ _______ _______ _____ _____    ______ ____
ROOT
ATOM      1  C   UNL     1      43.582   4.252  12.309  0.00  0.00    +0.000 C 
ATOM      2  C   UNL     1      44.167   5.156  11.225  0.00  0.00    +0.000 C 
ENDROOT
BRANCH   2   3
ATOM      3  C   UNL     1      43.794   6.639  11.422  0.00  0.00    +0.000 C 
BRANCH   3   4
ATOM      4  C   UNL     1      44.912   7.581  11.807  0.00  0.00    +0.000 A 
ATOM      5  C   UNL     1      46.068   7.104  12.435  0.00  0.00    +0.000 A 
ATOM      6  C   UNL     1      47.127   7.969  12.717  0.00  0.00    +0.000 A 
ATOM      7  C   UNL     1      47.047   9.316  12.361  0.00  0.00    +0.000 A 
ATOM      8  C   UNL     1      45.899   9.816  11.734  0.00  0.00    +0.000 A 
ATOM      9  C   UNL     1      44.830   8.942  11.479  0.00  0.00    +0.000 A 
BRANCH   8  10
ATOM     10  C   UNL     1      45.804  11.268  11.336  0.00  0.00    +0.000 C 
BRANCH  10  11
ATOM     11  N   UNL     1      44.794  11.973  12.121  0.00  0.00    +0.000 NA
ATOM     12  H   UNL     1      45.011  11.857  13.110  0.00  0.00    +0.000 HD
ATOM     13  H   UNL     1      43.887  11.541  11.968  0.00  0.00    +0.000 HD
ENDBRANCH  10  11
ENDBRANCH   8  10
ENDBRANCH   3   4
ENDBRANCH   2   3
BRANCH   2  14
ATOM     14  O   UNL     1      43.756   4.660   9.940  0.00  0.00    +0.000 OA
BRANCH  14  15
ATOM     15  C   UNL     1      44.557   3.750   9.306  0.00  0.00    +0.000 A 
ATOM     16  C   UNL     1      45.457   4.268   8.375  0.00  0.00    +0.000 A 
ATOM     17  C   UNL     1      46.317   3.412   7.681  0.00  0.00    +0.000 A 
ATOM     18  C   UNL     1      46.241   2.052   7.951  0.00  0.00    +0.000 A 
ATOM     19  N   UNL     1      45.375   1.507   8.848  0.00  0.00    +0.000 NA
ATOM     20  C   UNL     1      44.561   2.373   9.498  0.00  0.00    +0.000 A 
BRANCH  18  21
ATOM     21  C   UNL     1      47.143   1.084   7.251  0.00  0.00    +0.000 C 
ATOM     22  N   UNL     1      46.874  -0.237   7.501  0.00  0.00    +0.000 N 
ATOM     23  O   UNL     1      48.055   1.434   6.515  0.00  0.00    +0.000 OA
ATOM     24  H   UNL     1      46.119  -0.477   8.137  0.00  0.00    +0.000 HD
ATOM     25  H   UNL     1      47.453  -0.954   7.094  0.00  0.00    +0.000 HD
ENDBRANCH  18  21
ENDBRANCH  14  15
ENDBRANCH   2  14
TORSDOF 7
ENDMDL
MODEL 7
REMARK VINA RESULT:    -6.194      3.754      5.697
REMARK INTER + INTRA:          -9.326
REMARK INTER:                  -8.609
REMARK INTRA:                  -0.717
REMARK UNBOUND:                -0.778
REMARK  Name = 
REMARK  8 active torsions:
REMARK  status: ('A' for Active; 'I' for Inactive)
REMARK    1  A    between atoms: C_1  and  C_2
REMARK    2  A    between atoms: C_2  and  C_3
REMARK    3  A    between atoms: C_2  and  O_12
REMARK    4  A    between atoms: C_3  and  C_4
REMARK    5  A    between atoms: C_8  and  C_9
REMARK    6  A    between atoms: C_9  and  N_10
REMARK    7  A    between atoms: O_12  and  C_13
REMARK    8  A    between atoms: C_16  and  C_17
REMARK                            x       y       z     vdW  Elec       q    Type
REMARK                         _______ _______ _______ _____ _____    ______ ____
ROOT
ATOM      1  C   UNL     1      49.797   7.840  13.381  0.00  0.00    +0.000 C 
ATOM      2  C   UNL     1      48.554   7.304  14.091  0.00  0.00    +0.000 C 
ENDROOT
BRANCH   2   3
ATOM      3  C   UNL     1      48.671   7.372  15.627  0.00  0.00    +0.000 C 
BRANCH   3   4
ATOM      4  C   UNL     1      49.241   6.158  16.324  0.00  0.00    +0.000 A 
ATOM      5  C   UNL     1      50.594   6.102  16.677  0.00  0.00    +0.000 A 
ATOM      6  C   UNL     1      51.094   5.010  17.389  0.00  0.00    +0.000 A 
ATOM      7  C   UNL     1      50.244   3.970  17.768  0.00  0.00    +0.000 A 
ATOM      8  C   UNL     1      48.887   4.003  17.424  0.00  0.00    +0.000 A 
ATOM      9  C   UNL     1      48.401   5.094  16.685  0.00  0.00    +0.000 A 
BRANCH   8  10
ATOM     10  C   UNL     1      47.956   2.891  17.835  0.00  0.00    +0.000 C 
BRANCH  10  11
ATOM     11  N   UNL     1      46.567   3.210  17.517  0.00  0.00    +0.000 NA
ATOM     12  H   UNL     1      46.457   3.212  16.504  0.00  0.00    +0.000 HD
ATOM     13  H   UNL     1      46.356   4.151  17.836  0.00  0.00    +0.000 HD
ENDBRANCH  10  11
ENDBRANCH   8  10
ENDBRANCH   3   4
ENDBRANCH   2   3
BRANCH   2  14
ATOM     14  O   UNL     1      48.297   5.969  13.626  0.00  0.00    +0.000 OA
BRANCH  14  15
ATOM     15  C   UNL     1      47.033   5.657  13.207  0.00  0.00    +0.000 A 
ATOM     16  C   UNL     1      46.504   6.461  12.198  0.00  0.00    +0.000 A 
ATOM     17  C   UNL     1      45.219   6.214  11.707  0.00  0.00    +0.000 A 
ATOM     18  C   UNL     1      44.504   5.156  12.252  0.00  0.00    +0.000 A 
ATOM     19  N   UNL     1      44.983   4.351  13.240  0.00  0.00    +0.000 NA
ATOM     20  C   UNL     1      46.231   4.626  13.686  0.00  0.00    +0.000 A 
BRANCH  18  21
ATOM     21  C   UNL     1      43.129   4.831  11.761  0.00  0.00    +0.000 C 
ATOM     22  N   UNL     1      42.249   5.882  11.772  0.00  0.00    +0.000 N 
ATOM     23  O   UNL     1      42.802   3.714  11.381  0.00  0.00    +0.000 OA
ATOM     24  H   UNL     1      42.561   6.785  12.118  0.00  0.00    +0.000 HD
ATOM     25  H   UNL     1      41.293   5.742  11.486  0.00  0.00    +0.000 HD
ENDBRANCH  18  21
ENDBRANCH  14  15
ENDBRANCH   2  14
TORSDOF 7
ENDMDL
MODEL 8
REMARK VINA RESULT:    -6.175      2.813      6.905
REMARK INTER + INTRA:          -9.300
REMARK INTER:                  -8.606
REMARK INTRA:                  -0.694
REMARK UNBOUND:                -0.778
REMARK  Name = 
REMARK  8 active torsions:
REMARK  status: ('A' for Active; 'I' for Inactive)
REMARK    1  A    between atoms: C_1  and  C_2
REMARK    2  A    between atoms: C_2  and  C_3
REMARK    3  A    between atoms: C_2  and  O_12
REMARK    4  A    between atoms: C_3  and  C_4
REMARK    5  A    between atoms: C_8  and  C_9
REMARK    6  A    between atoms: C_9  and  N_10
REMARK    7  A    between atoms: O_12  and  C_13
REMARK    8  A    between atoms: C_16  and  C_17
REMARK                            x       y       z     vdW  Elec       q    Type
REMARK                         _______ _______ _______ _____ _____    ______ ____
ROOT
ATOM      1  C   UNL     1      48.268   7.643  11.498  0.00  0.00    +0.000 C 
ATOM      2  C   UNL     1      47.231   6.632  11.982  0.00  0.00    +0.000 C 
ENDROOT
BRANCH   2   3
ATOM      3  C   UNL     1      45.919   6.693  11.172  0.00  0.00    +0.000 C 
BRANCH   3   4
ATOM      4  C   UNL     1      45.410   5.393  10.594  0.00  0.00    +0.000 A 
ATOM      5  C   UNL     1      44.488   4.607  11.295  0.00  0.00    +0.000 A 
ATOM      6  C   UNL     1      43.966   3.448  10.720  0.00  0.00    +0.000 A 
ATOM      7  C   UNL     1      44.349   3.069   9.433  0.00  0.00    +0.000 A 
ATOM      8  C   UNL     1      45.272   3.837   8.713  0.00  0.00    +0.000 A 
ATOM      9  C   UNL     1      45.810   4.987   9.312  0.00  0.00    +0.000 A 
BRANCH   8  10
ATOM     10  C   UNL     1      45.687   3.444   7.317  0.00  0.00    +0.000 C 
BRANCH  10  11
ATOM     11  N   UNL     1      46.863   4.190   6.878  0.00  0.00    +0.000 NA
ATOM     12  H   UNL     1      46.588   4.815   6.121  0.00  0.00    +0.000 HD
ATOM     13  H   UNL     1      47.546   3.544   6.491  0.00  0.00    +0.000 HD
ENDBRANCH  10  11
ENDBRANCH   8  10
ENDBRANCH   3   4
ENDBRANCH   2   3
BRANCH   2  14
ATOM     14  O   UNL     1      47.009   6.834  13.387  0.00  0.00    +0.000 OA
BRANCH  14  15
ATOM     15  C   UNL     1      47.327   5.820  14.249  0.00  0.00    +0.000 A 
ATOM     16  C   UNL     1      48.109   6.171  15.348  0.00  0.00    +0.000 A 
ATOM     17  C   UNL     1      48.480   5.200  16.283  0.00  0.00    +0.000 A 
ATOM     18  C   UNL     1      48.046   3.897  16.078  0.00  0.00    +0.000 A 
ATOM     19  N   UNL     1      47.285   3.514  15.016  0.00  0.00    +0.000 NA
ATOM     20  C   UNL     1      46.949   4.486  14.136  0.00  0.00    +0.000 A 
BRANCH  18  21
ATOM     21  C   UNL     1      48.397   2.814  17.048  0.00  0.00    +0.000 C 
ATOM     22  N   UNL     1      49.222   1.839  16.549  0.00  0.00    +0.000 N 
ATOM     23  O   UNL     1      47.982   2.787  18.198  0.00  0.00    +0.000 OA
ATOM     24  H   UNL     1      49.523   1.893  15.580  0.00  0.00    +0.000 HD
ATOM     25  H   UNL     1      49.483   1.056  17.127  0.00  0.00    +0.000 HD
ENDBRANCH  18  21
ENDBRANCH  14  15
ENDBRANCH   2  14
TORSDOF 7
ENDMDL
MODEL 9
REMARK VINA RESULT:    -6.117      3.529      5.560
REMARK INTER + INTRA:          -9.220
REMARK INTER:                  -8.337
REMARK INTRA:                  -0.882
REMARK UNBOUND:                -0.778
REMARK  Name = 
REMARK  8 active torsions:
REMARK  status: ('A' for Active; 'I' for Inactive)
REMARK    1  A    between atoms: C_1  and  C_2
REMARK    2  A    between atoms: C_2  and  C_3
REMARK    3  A    between atoms: C_2  and  O_12
REMARK    4  A    between atoms: C_3  and  C_4
REMARK    5  A    between atoms: C_8  and  C_9
REMARK    6  A    between atoms: C_9  and  N_10
REMARK    7  A    between atoms: O_12  and  C_13
REMARK    8  A    between atoms: C_16  and  C_17
REMARK                            x       y       z     vdW  Elec       q    Type
REMARK                         _______ _______ _______ _____ _____    ______ ____
ROOT
ATOM      1  C   UNL     1      48.801   7.727  11.799  0.00  0.00    +0.000 C 
ATOM      2  C   UNL     1      47.337   8.024  12.119  0.00  0.00    +0.000 C 
ENDROOT
BRANCH   2   3
ATOM      3  C   UNL     1      47.116   9.476  12.591  0.00  0.00    +0.000 C 
BRANCH   3   4
ATOM      4  C   UNL     1      46.038  10.268  11.888  0.00  0.00    +0.000 A 
ATOM      5  C   UNL     1      46.287  11.564  11.423  0.00  0.00    +0.000 A 
ATOM      6  C   UNL     1      45.310  12.258  10.707  0.00  0.00    +0.000 A 
ATOM      7  C   UNL     1      44.080  11.658  10.436  0.00  0.00    +0.000 A 
ATOM      8  C   UNL     1      43.807  10.363  10.892  0.00  0.00    +0.000 A 
ATOM      9  C   UNL     1      44.788   9.685  11.634  0.00  0.00    +0.000 A 
BRANCH   8  10
ATOM     10  C   UNL     1      42.485   9.700  10.598  0.00  0.00    +0.000 C 
BRANCH  10  11
ATOM     11  N   UNL     1      42.504   8.284  10.955  0.00  0.00    +0.000 NA
ATOM     12  H   UNL     1      41.603   7.874  10.713  0.00  0.00    +0.000 HD
ATOM     13  H   UNL     1      42.605   8.193  11.963  0.00  0.00    +0.000 HD
ENDBRANCH  10  11
ENDBRANCH   8  10
ENDBRANCH   3   4
ENDBRANCH   2   3
BRANCH   2  14
ATOM     14  O   UNL     1      46.871   7.065  13.081  0.00  0.00    +0.000 OA
BRANCH  14  15
ATOM     15  C   UNL     1      46.158   5.986  12.633  0.00  0.00    +0.000 A 
ATOM     16  C   UNL     1      45.692   6.060  11.320  0.00  0.00    +0.000 A 
ATOM     17  C   UNL     1      44.957   5.003  10.777  0.00  0.00    +0.000 A 
ATOM     18  C   UNL     1      44.714   3.897  11.581  0.00  0.00    +0.000 A 
ATOM     19  N   UNL     1      45.147   3.788  12.867  0.00  0.00    +0.000 NA
ATOM     20  C   UNL     1      45.855   4.835  13.352  0.00  0.00    +0.000 A 
BRANCH  18  21
ATOM     21  C   UNL     1      43.945   2.726  11.055  0.00  0.00    +0.000 C 
ATOM     22  N   UNL     1      44.450   2.172   9.908  0.00  0.00    +0.000 N 
ATOM     23  O   UNL     1      42.937   2.292  11.597  0.00  0.00    +0.000 OA
ATOM     24  H   UNL     1      45.277   2.582   9.483  0.00  0.00    +0.000 HD
ATOM     25  H   UNL     1      43.975   1.399   9.470  0.00  0.00    +0.000 HD
ENDBRANCH  18  21
ENDBRANCH  14  15
ENDBRANCH   2  14
TORSDOF 7
ENDMDL
