MODEL 1
REMARK VINA RESULT:    -7.285      0.000      0.000
REMARK INTER + INTRA:         -12.400
REMARK INTER:                 -11.118
REMARK INTRA:                  -1.282
REMARK UNBOUND:                -1.282
REMARK  Name = 
REMARK  9 active torsions:
REMARK  status: ('A' for Active; 'I' for Inactive)
REMARK    1  A    between atoms: C_2  and  C_3
REMARK    2  A    between atoms: C_4  and  C_5
REMARK    3  A    between atoms: C_8  and  C_9
REMARK    4  A    between atoms: C_9  and  N_10
REMARK    5  A    between atoms: N_10  and  C_11
REMARK    6  A    between atoms: C_11  and  C_12
REMARK    7  A    between atoms: C_15  and  C_16
REMARK    8  A    between atoms: C_16  and  N_17
REMARK    9  A    between atoms: C_18  and  C_20
REMARK                            x       y       z     vdW  Elec       q    Type
REMARK                         _______ _______ _______ _____ _____    ______ ____
ROOT
ATOM      1  C   UNL     1      45.641   5.714  13.160  0.00  0.00    +0.000 A 
ATOM      2  C   UNL     1      46.873   5.096  13.434  0.00  0.00    +0.000 A 
ATOM      3  C   UNL     1      48.070   5.805  13.320  0.00  0.00    +0.000 A 
ATOM      4  C   UNL     1      48.065   7.146  12.920  0.00  0.00    +0.000 A 
ATOM      5  C   UNL     1      46.843   7.752  12.600  0.00  0.00    +0.000 A 
ATOM      6  C   UNL     1      45.644   7.046  12.727  0.00  0.00    +0.000 A 
ENDROOT
BRANCH   1   7
ATOM      7  C   UNL     1      44.341   4.955  13.310  0.00  0.00    +0.000 C 
BRANCH   7   8
ATOM      8  N   UNL     1      43.209   5.753  12.847  0.00  0.00    +0.000 NA
ATOM      9  H   UNL     1      42.592   5.957  13.630  0.00  0.00    +0.000 HD
BRANCH   8  10
ATOM     10  C   UNL     1      42.442   5.056  11.819  0.00  0.00    +0.000 C 
BRANCH  10  14
ATOM     11  C   UNL     1      45.129   3.071   9.060  0.00  0.00    +0.000 A 
ATOM     12  C   UNL     1      44.917   4.454   8.987  0.00  0.00    +0.000 A 
ATOM     13  C   UNL     1      44.057   5.089   9.883  0.00  0.00    +0.000 A 
ATOM     14  C   UNL     1      43.369   4.353  10.856  0.00  0.00    +0.000 A 
ATOM     15  C   UNL     1      43.556   2.966  10.908  0.00  0.00    +0.000 A 
ATOM     16  C   UNL     1      44.426   2.331  10.016  0.00  0.00    +0.000 A 
BRANCH  11  18
ATOM     17  C   UNL     1      46.789   3.033   7.240  0.00  0.00    +0.000 C 
ATOM     18  C   UNL     1      46.024   2.379   8.125  0.00  0.00    +0.000 C 
BRANCH  17  20
ATOM     19  N   UNL     1      48.394   1.675   5.421  0.00  0.00    +0.000 NA
ATOM     20  C   UNL     1      47.667   2.290   6.246  0.00  0.00    +0.000 C 
ENDBRANCH  17  20
ENDBRANCH  11  18
ENDBRANCH  10  14
ENDBRANCH   8  10
ENDBRANCH   7   8
ENDBRANCH   1   7
BRANCH   4  21
ATOM     21  C   UNL     1      49.351   7.917  12.790  0.00  0.00    +0.000 C 
BRANCH  21  22
ATOM     22  N   UNL     1      50.363   7.384  13.665  0.00  0.00    +0.000 N 
ATOM     23  C   UNL     1      50.559   7.901  14.918  0.00  0.00    +0.000 C 
ATOM     24  O   UNL     1      49.853   8.800  15.369  0.00  0.00    +0.000 OA
ATOM     25  H   UNL     1      51.086   6.811  13.238  0.00  0.00    +0.000 HD
BRANCH  23  26
ATOM     26  C   UNL     1      51.620   7.287  15.724  0.00  0.00    +0.000 A 
ATOM     27  C   UNL     1      52.910   7.798  15.665  0.00  0.00    +0.000 A 
ATOM     28  S   UNL     1      54.012   6.999  16.690  0.00  0.00    +0.000 S 
ATOM     29  C   UNL     1      52.817   5.909  17.215  0.00  0.00    +0.000 A 
ATOM     30  N   UNL     1      53.113   4.920  18.102  0.00  0.00    +0.000 NA
ATOM     31  C   UNL     1      52.121   4.148  18.390  0.00  0.00    +0.000 A 
ATOM     32  N   UNL     1      50.855   4.277  17.879  0.00  0.00    +0.000 N 
ATOM     33  C   UNL     1      50.504   5.276  17.004  0.00  0.00    +0.000 A 
ATOM     34  O   UNL     1      49.351   5.388  16.598  0.00  0.00    +0.000 OA
ATOM     35  C   UNL     1      51.588   6.164  16.633  0.00  0.00    +0.000 A 
ATOM     36  H   UNL     1      50.119   3.643  18.153  0.00  0.00    +0.000 HD
ENDBRANCH  23  26
ENDBRANCH  21  22
ENDBRANCH   4  21
TORSDOF 9
ENDMDL
MODEL 2
REMARK VINA RESULT:    -7.116      2.245      2.739
REMARK INTER + INTRA:         -12.143
REMARK INTER:                 -11.393
REMARK INTRA:                  -0.750
REMARK UNBOUND:                -1.282
REMARK  Name = 
REMARK  9 active torsions:
REMARK  status: ('A' for Active; 'I' for Inactive)
REMARK    1  A    between atoms: C_2  and  C_3
REMARK    2  A    between atoms: C_4  and  C_5
REMARK    3  A    between atoms: C_8  and  C_9
REMARK    4  A    between atoms: C_9  and  N_10
REMARK    5  A    between atoms: N_10  and  C_11
REMARK    6  A    between atoms: C_11  and  C_12
REMARK    7  A    between atoms: C_15  and  C_16
REMARK    8  A    between atoms: C_16  and  N_17
REMARK    9  A    between atoms: C_18  and  C_20
REMARK                            x       y       z     vdW  Elec       q    Type
REMARK                         _______ _______ _______ _____ _____    ______ ____
ROOT
ATOM      1  C   UNL     1      45.687   6.862  12.815  0.00  0.00    +0.000 A 
ATOM      2  C   UNL     1      46.238   8.113  13.140  0.00  0.00    +0.000 A 
ATOM      3  C   UNL     1      47.508   8.209  13.711  0.00  0.00    +0.000 A 
ATOM      4  C   UNL     1      48.255   7.056  13.979  0.00  0.00    +0.000 A 
ATOM      5  C   UNL     1      47.690   5.804  13.700  0.00  0.00    +0.000 A 
ATOM      6  C   UNL     1      46.423   5.709  13.117  0.00  0.00    +0.000 A 
ENDROOT
BRANCH   1   7
ATOM      7  C   UNL     1      44.322   6.758  12.172  0.00  0.00    +0.000 C 
BRANCH   7   8
ATOM      8  N   UNL     1      43.402   5.994  13.009  0.00  0.00    +0.000 NA
ATOM      9  H   UNL     1      43.928   5.449  13.688  0.00  0.00    +0.000 HD
BRANCH   8  10
ATOM     10  C   UNL     1      42.580   5.084  12.217  0.00  0.00    +0.000 C 
BRANCH  10  14
ATOM     11  C   UNL     1      45.025   3.063   9.266  0.00  0.00    +0.000 A 
ATOM     12  C   UNL     1      44.434   4.301   8.984  0.00  0.00    +0.000 A 
ATOM     13  C   UNL     1      43.655   4.951   9.941  0.00  0.00    +0.000 A 
ATOM     14  C   UNL     1      43.426   4.366  11.193  0.00  0.00    +0.000 A 
ATOM     15  C   UNL     1      43.990   3.113  11.464  0.00  0.00    +0.000 A 
ATOM     16  C   UNL     1      44.779   2.466  10.508  0.00  0.00    +0.000 A 
BRANCH  11  18
ATOM     17  C   UNL     1      46.810   2.964   7.571  0.00  0.00    +0.000 C 
ATOM     18  C   UNL     1      45.845   2.356   8.274  0.00  0.00    +0.000 C 
BRANCH  17  20
ATOM     19  N   UNL     1      48.269   1.609   5.631  0.00  0.00    +0.000 NA
ATOM     20  C   UNL     1      47.607   2.223   6.511  0.00  0.00    +0.000 C 
ENDBRANCH  17  20
ENDBRANCH  11  18
ENDBRANCH  10  14
ENDBRANCH   8  10
ENDBRANCH   7   8
ENDBRANCH   1   7
BRANCH   4  21
ATOM     21  C   UNL     1      49.623   7.150  14.598  0.00  0.00    +0.000 C 
BRANCH  21  22
ATOM     22  N   UNL     1      49.534   7.345  16.022  0.00  0.00    +0.000 N 
ATOM     23  C   UNL     1      49.970   6.385  16.896  0.00  0.00    +0.000 C 
ATOM     24  O   UNL     1      50.502   5.346  16.510  0.00  0.00    +0.000 OA
ATOM     25  H   UNL     1      48.909   8.076  16.348  0.00  0.00    +0.000 HD
BRANCH  23  26
ATOM     26  C   UNL     1      49.828   6.684  18.325  0.00  0.00    +0.000 A 
ATOM     27  C   UNL     1      50.234   7.921  18.811  0.00  0.00    +0.000 A 
ATOM     28  S   UNL     1      49.962   8.124  20.481  0.00  0.00    +0.000 S 
ATOM     29  C   UNL     1      49.337   6.549  20.627  0.00  0.00    +0.000 A 
ATOM     30  N   UNL     1      48.932   6.066  21.832  0.00  0.00    +0.000 NA
ATOM     31  C   UNL     1      48.508   4.849  21.804  0.00  0.00    +0.000 A 
ATOM     32  N   UNL     1      48.443   4.069  20.678  0.00  0.00    +0.000 N 
ATOM     33  C   UNL     1      48.813   4.524  19.435  0.00  0.00    +0.000 A 
ATOM     34  O   UNL     1      48.702   3.814  18.440  0.00  0.00    +0.000 OA
ATOM     35  C   UNL     1      49.315   5.884  19.413  0.00  0.00    +0.000 A 
ATOM     36  H   UNL     1      48.091   3.124  20.721  0.00  0.00    +0.000 HD
ENDBRANCH  23  26
ENDBRANCH  21  22
ENDBRANCH   4  21
TORSDOF 9
ENDMDL
MODEL 3
REMARK VINA RESULT:    -6.841      4.013      8.880
REMARK INTER + INTRA:         -11.722
REMARK INTER:                  -9.488
REMARK INTRA:                  -2.234
REMARK UNBOUND:                -1.282
REMARK  Name = 
REMARK  9 active torsions:
REMARK  status: ('A' for Active; 'I' for Inactive)
REMARK    1  A    between atoms: C_2  and  C_3
REMARK    2  A    between atoms: C_4  and  C_5
REMARK    3  A    between atoms: C_8  and  C_9
REMARK    4  A    between atoms: C_9  and  N_10
REMARK    5  A    between atoms: N_10  and  C_11
REMARK    6  A    between atoms: C_11  and  C_12
REMARK    7  A    between atoms: C_15  and  C_16
REMARK    8  A    between atoms: C_16  and  N_17
REMARK    9  A    between atoms: C_18  and  C_20
REMARK                            x       y       z     vdW  Elec       q    Type
REMARK                         _______ _______ _______ _____ _____    ______ ____
ROOT
ATOM      1  C   UNL     1      48.803  10.099  18.818  0.00  0.00    +0.000 A 
ATOM      2  C   UNL     1      47.738   9.876  17.929  0.00  0.00    +0.000 A 
ATOM      3  C   UNL     1      47.922   9.125  16.766  0.00  0.00    +0.000 A 
ATOM      4  C   UNL     1      49.177   8.588  16.460  0.00  0.00    +0.000 A 
ATOM      5  C   UNL     1      50.253   8.848  17.320  0.00  0.00    +0.000 A 
ATOM      6  C   UNL     1      50.065   9.589  18.490  0.00  0.00    +0.000 A 
ENDROOT
BRANCH   1   7
ATOM      7  C   UNL     1      48.599  10.889  20.091  0.00  0.00    +0.000 C 
BRANCH   7   8
ATOM      8  N   UNL     1      49.084  10.151  21.253  0.00  0.00    +0.000 NA
ATOM      9  H   UNL     1      49.956   9.681  21.020  0.00  0.00    +0.000 HD
BRANCH   8  10
ATOM     10  C   UNL     1      48.119   9.150  21.699  0.00  0.00    +0.000 C 
BRANCH  10  14
ATOM     11  C   UNL     1      48.695   5.437  19.541  0.00  0.00    +0.000 A 
ATOM     12  C   UNL     1      47.448   6.074  19.556  0.00  0.00    +0.000 A 
ATOM     13  C   UNL     1      47.270   7.274  20.245  0.00  0.00    +0.000 A 
ATOM     14  C   UNL     1      48.329   7.851  20.958  0.00  0.00    +0.000 A 
ATOM     15  C   UNL     1      49.568   7.197  20.970  0.00  0.00    +0.000 A 
ATOM     16  C   UNL     1      49.748   6.000  20.271  0.00  0.00    +0.000 A 
BRANCH  11  18
ATOM     17  C   UNL     1      49.060   4.110  17.498  0.00  0.00    +0.000 C 
ATOM     18  C   UNL     1      48.906   4.172  18.828  0.00  0.00    +0.000 C 
BRANCH  17  20
ATOM     19  N   UNL     1      49.356   1.680  16.180  0.00  0.00    +0.000 NA
ATOM     20  C   UNL     1      49.221   2.782  16.778  0.00  0.00    +0.000 C 
ENDBRANCH  17  20
ENDBRANCH  11  18
ENDBRANCH  10  14
ENDBRANCH   8  10
ENDBRANCH   7   8
ENDBRANCH   1   7
BRANCH   4  21
ATOM     21  C   UNL     1      49.386   7.781  15.207  0.00  0.00    +0.000 C 
BRANCH  21  22
ATOM     22  N   UNL     1      48.128   7.463  14.582  0.00  0.00    +0.000 N 
ATOM     23  C   UNL     1      48.074   6.695  13.449  0.00  0.00    +0.000 C 
ATOM     24  O   UNL     1      49.082   6.203  12.948  0.00  0.00    +0.000 OA
ATOM     25  H   UNL     1      47.327   8.031  14.843  0.00  0.00    +0.000 HD
BRANCH  23  26
ATOM     26  C   UNL     1      46.741   6.435  12.894  0.00  0.00    +0.000 A 
ATOM     27  C   UNL     1      45.982   7.493  12.409  0.00  0.00    +0.000 A 
ATOM     28  S   UNL     1      44.479   7.018  11.763  0.00  0.00    +0.000 S 
ATOM     29  C   UNL     1      44.766   5.387  12.149  0.00  0.00    +0.000 A 
ATOM     30  N   UNL     1      43.837   4.430  11.880  0.00  0.00    +0.000 NA
ATOM     31  C   UNL     1      44.171   3.242  12.253  0.00  0.00    +0.000 A 
ATOM     32  N   UNL     1      45.355   2.919  12.864  0.00  0.00    +0.000 N 
ATOM     33  C   UNL     1      46.335   3.846  13.129  0.00  0.00    +0.000 A 
ATOM     34  O   UNL     1      47.401   3.515  13.638  0.00  0.00    +0.000 OA
ATOM     35  C   UNL     1      46.001   5.204  12.744  0.00  0.00    +0.000 A 
ATOM     36  H   UNL     1      45.561   1.965  13.123  0.00  0.00    +0.000 HD
ENDBRANCH  23  26
ENDBRANCH  21  22
ENDBRANCH   4  21
TORSDOF 9
ENDMDL
MODEL 4
REMARK VINA RESULT:    -6.731      3.800      9.124
REMARK INTER + INTRA:         -11.554
REMARK INTER:                  -9.501
REMARK INTRA:                  -2.054
REMARK UNBOUND:                -1.282
REMARK  Name = 
REMARK  9 active torsions:
REMARK  status: ('A' for Active; 'I' for Inactive)
REMARK    1  A    between atoms: C_2  and  C_3
REMARK    2  A    between atoms: C_4  and  C_5
REMARK    3  A    between atoms: C_8  and  C_9
REMARK    4  A    between atoms: C_9  and  N_10
REMARK    5  A    between atoms: N_10  and  C_11
REMARK    6  A    between atoms: C_11  and  C_12
REMARK    7  A    between atoms: C_15  and  C_16
REMARK    8  A    between atoms: C_16  and  N_17
REMARK    9  A    between atoms: C_18  and  C_20
REMARK                            x       y       z     vdW  Elec       q    Type
REMARK                         _______ _______ _______ _____ _____    ______ ____
ROOT
ATOM      1  C   UNL     1      49.658   9.471  12.310  0.00  0.00    +0.000 A 
ATOM      2  C   UNL     1      48.669  10.462  12.186  0.00  0.00    +0.000 A 
ATOM      3  C   UNL     1      47.321  10.117  12.071  0.00  0.00    +0.000 A 
ATOM      4  C   UNL     1      46.931   8.772  12.068  0.00  0.00    +0.000 A 
ATOM      5  C   UNL     1      47.918   7.781  12.144  0.00  0.00    +0.000 A 
ATOM      6  C   UNL     1      49.266   8.127  12.272  0.00  0.00    +0.000 A 
ENDROOT
BRANCH   1   7
ATOM      7  C   UNL     1      51.116   9.844  12.462  0.00  0.00    +0.000 C 
BRANCH   7   8
ATOM      8  N   UNL     1      51.302  10.819  13.532  0.00  0.00    +0.000 NA
ATOM      9  H   UNL     1      51.851  11.604  13.189  0.00  0.00    +0.000 HD
BRANCH   8  10
ATOM     10  C   UNL     1      51.990  10.236  14.681  0.00  0.00    +0.000 C 
BRANCH  10  14
ATOM     11  C   UNL     1      49.577   7.072  16.394  0.00  0.00    +0.000 A 
ATOM     12  C   UNL     1      49.102   8.389  16.339  0.00  0.00    +0.000 A 
ATOM     13  C   UNL     1      49.880   9.402  15.778  0.00  0.00    +0.000 A 
ATOM     14  C   UNL     1      51.161   9.128  15.284  0.00  0.00    +0.000 A 
ATOM     15  C   UNL     1      51.650   7.817  15.369  0.00  0.00    +0.000 A 
ATOM     16  C   UNL     1      50.865   6.800  15.922  0.00  0.00    +0.000 A 
BRANCH  11  18
ATOM     17  C   UNL     1      48.131   5.084  16.240  0.00  0.00    +0.000 C 
ATOM     18  C   UNL     1      48.780   5.990  16.984  0.00  0.00    +0.000 C 
BRANCH  17  20
ATOM     19  N   UNL     1      46.550   3.113  17.400  0.00  0.00    +0.000 NA
ATOM     20  C   UNL     1      47.267   4.006  16.874  0.00  0.00    +0.000 C 
ENDBRANCH  17  20
ENDBRANCH  11  18
ENDBRANCH  10  14
ENDBRANCH   8  10
ENDBRANCH   7   8
ENDBRANCH   1   7
BRANCH   4  21
ATOM     21  C   UNL     1      45.480   8.392  11.940  0.00  0.00    +0.000 C 
BRANCH  21  22
ATOM     22  N   UNL     1      45.338   6.986  11.664  0.00  0.00    +0.000 N 
ATOM     23  C   UNL     1      44.110   6.436  11.406  0.00  0.00    +0.000 C 
ATOM     24  O   UNL     1      43.090   7.119  11.347  0.00  0.00    +0.000 OA
ATOM     25  H   UNL     1      46.114   6.384  11.925  0.00  0.00    +0.000 HD
BRANCH  23  26
ATOM     26  C   UNL     1      44.079   4.993  11.142  0.00  0.00    +0.000 A 
ATOM     27  C   UNL     1      43.369   4.155  11.993  0.00  0.00    +0.000 A 
ATOM     28  S   UNL     1      43.399   2.517  11.524  0.00  0.00    +0.000 S 
ATOM     29  C   UNL     1      44.401   2.859  10.193  0.00  0.00    +0.000 A 
ATOM     30  N   UNL     1      44.833   1.867   9.368  0.00  0.00    +0.000 NA
ATOM     31  C   UNL     1      45.610   2.263   8.419  0.00  0.00    +0.000 A 
ATOM     32  N   UNL     1      45.990   3.564   8.211  0.00  0.00    +0.000 N 
ATOM     33  C   UNL     1      45.556   4.602   8.999  0.00  0.00    +0.000 A 
ATOM     34  O   UNL     1      45.881   5.761   8.759  0.00  0.00    +0.000 OA
ATOM     35  C   UNL     1      44.691   4.209  10.095  0.00  0.00    +0.000 A 
ATOM     36  H   UNL     1      46.595   3.810   7.441  0.00  0.00    +0.000 HD
ENDBRANCH  23  26
ENDBRANCH  21  22
ENDBRANCH   4  21
TORSDOF 9
ENDMDL
MODEL 5
REMARK VINA RESULT:    -6.720      4.047      4.635
REMARK INTER + INTRA:         -11.538
REMARK INTER:                 -10.579
REMARK INTRA:                  -0.960
REMARK UNBOUND:                -1.282
REMARK  Name = 
REMARK  9 active torsions:
REMARK  status: ('A' for Active; 'I' for Inactive)
REMARK    1  A    between atoms: C_2  and  C_3
REMARK    2  A    between atoms: C_4  and  C_5
REMARK    3  A    between atoms: C_8  and  C_9
REMARK    4  A    between atoms: C_9  and  N_10
REMARK    5  A    between atoms: N_10  and  C_11
REMARK    6  A    between atoms: C_11  and  C_12
REMARK    7  A    between atoms: C_15  and  C_16
REMARK    8  A    between atoms: C_16  and  N_17
REMARK    9  A    between atoms: C_18  and  C_20
REMARK                            x       y       z     vdW  Elec       q    Type
REMARK                         _______ _______ _______ _____ _____    ______ ____
ROOT
ATOM      1  C   UNL     1      45.568   6.955  12.617  0.00  0.00    +0.000 A 
ATOM      2  C   UNL     1      46.955   6.821  12.441  0.00  0.00    +0.000 A 
ATOM      3  C   UNL     1      47.762   7.941  12.235  0.00  0.00    +0.000 A 
ATOM      4  C   UNL     1      47.200   9.222  12.191  0.00  0.00    +0.000 A 
ATOM      5  C   UNL     1      45.811   9.356  12.319  0.00  0.00    +0.000 A 
ATOM      6  C   UNL     1      45.005   8.235  12.538  0.00  0.00    +0.000 A 
ENDROOT
BRANCH   1   7
ATOM      7  C   UNL     1      44.695   5.745  12.867  0.00  0.00    +0.000 C 
BRANCH   7   8
ATOM      8  N   UNL     1      43.280   6.084  12.758  0.00  0.00    +0.000 NA
ATOM      9  H   UNL     1      42.886   6.216  13.686  0.00  0.00    +0.000 HD
BRANCH   8  10
ATOM     10  C   UNL     1      42.525   5.037  12.076  0.00  0.00    +0.000 C 
BRANCH  10  14
ATOM     11  C   UNL     1      45.052   3.054   9.169  0.00  0.00    +0.000 A 
ATOM     12  C   UNL     1      44.761   4.419   9.056  0.00  0.00    +0.000 A 
ATOM     13  C   UNL     1      43.954   5.054   9.999  0.00  0.00    +0.000 A 
ATOM     14  C   UNL     1      43.397   4.334  11.063  0.00  0.00    +0.000 A 
ATOM     15  C   UNL     1      43.661   2.961  11.158  0.00  0.00    +0.000 A 
ATOM     16  C   UNL     1      44.478   2.327  10.218  0.00  0.00    +0.000 A 
BRANCH  11  18
ATOM     17  C   UNL     1      46.824   2.995   7.458  0.00  0.00    +0.000 C 
ATOM     18  C   UNL     1      45.894   2.361   8.186  0.00  0.00    +0.000 C 
BRANCH  17  20
ATOM     19  N   UNL     1      48.326   1.661   5.537  0.00  0.00    +0.000 NA
ATOM     20  C   UNL     1      47.645   2.266   6.408  0.00  0.00    +0.000 C 
ENDBRANCH  17  20
ENDBRANCH  11  18
ENDBRANCH  10  14
ENDBRANCH   8  10
ENDBRANCH   7   8
ENDBRANCH   1   7
BRANCH   4  21
ATOM     21  C   UNL     1      48.062  10.435  11.965  0.00  0.00    +0.000 C 
BRANCH  21  22
ATOM     22  N   UNL     1      49.198  10.115  11.139  0.00  0.00    +0.000 N 
ATOM     23  C   UNL     1      50.405  10.735  11.325  0.00  0.00    +0.000 C 
ATOM     24  O   UNL     1      50.587  11.546  12.230  0.00  0.00    +0.000 OA
ATOM     25  H   UNL     1      49.010   9.629  10.267  0.00  0.00    +0.000 HD
BRANCH  23  26
ATOM     26  C   UNL     1      51.493  10.337  10.425  0.00  0.00    +0.000 A 
ATOM     27  C   UNL     1      52.085  11.287   9.602  0.00  0.00    +0.000 A 
ATOM     28  S   UNL     1      53.358  10.671   8.651  0.00  0.00    +0.000 S 
ATOM     29  C   UNL     1      53.133   9.102   9.267  0.00  0.00    +0.000 A 
ATOM     30  N   UNL     1      53.901   8.064   8.837  0.00  0.00    +0.000 NA
ATOM     31  C   UNL     1      53.604   6.926   9.364  0.00  0.00    +0.000 A 
ATOM     32  N   UNL     1      52.613   6.729  10.292  0.00  0.00    +0.000 N 
ATOM     33  C   UNL     1      51.833   7.751  10.778  0.00  0.00    +0.000 A 
ATOM     34  O   UNL     1      50.984   7.547  11.640  0.00  0.00    +0.000 OA
ATOM     35  C   UNL     1      52.115   9.052  10.203  0.00  0.00    +0.000 A 
ATOM     36  H   UNL     1      52.436   5.812  10.674  0.00  0.00    +0.000 HD
ENDBRANCH  23  26
ENDBRANCH  21  22
ENDBRANCH   4  21
TORSDOF 9
ENDMDL
MODEL 6
REMARK VINA RESULT:    -6.420      4.491      6.916
REMARK INTER + INTRA:         -11.080
REMARK INTER:                  -9.771
REMARK INTRA:                  -1.309
REMARK UNBOUND:                -1.282
REMARK  Name = 
REMARK  9 active torsions:
REMARK  status: ('A' for Active; 'I' for Inactive)
REMARK    1  A    between atoms: C_2  and  C_3
REMARK    2  A    between atoms: C_4  and  C_5
REMARK    3  A    between atoms: C_8  and  C_9
REMARK    4  A    between atoms: C_9  and  N_10
REMARK    5  A    between atoms: N_10  and  C_11
REMARK    6  A    between atoms: C_11  and  C_12
REMARK    7  A    between atoms: C_15  and  C_16
REMARK    8  A    between atoms: C_16  and  N_17
REMARK    9  A    between atoms: C_18  and  C_20
REMARK                            x       y       z     vdW  Elec       q    Type
REMARK                         _______ _______ _______ _____ _____    ______ ____
ROOT
ATOM      1  C   UNL     1      46.454   9.695  12.039  0.00  0.00    +0.000 A 
ATOM      2  C   UNL     1      47.647   8.954  12.079  0.00  0.00    +0.000 A 
ATOM      3  C   UNL     1      47.642   7.610  12.458  0.00  0.00    +0.000 A 
ATOM      4  C   UNL     1      46.445   6.978  12.814  0.00  0.00    +0.000 A 
ATOM      5  C   UNL     1      45.260   7.726  12.821  0.00  0.00    +0.000 A 
ATOM      6  C   UNL     1      45.264   9.068  12.430  0.00  0.00    +0.000 A 
ENDROOT
BRANCH   1   7
ATOM      7  C   UNL     1      46.454  11.143  11.604  0.00  0.00    +0.000 C 
BRANCH   7   8
ATOM      8  N   UNL     1      45.298  11.856  12.141  0.00  0.00    +0.000 NA
ATOM      9  H   UNL     1      44.727  11.217  12.690  0.00  0.00    +0.000 HD
BRANCH   8  10
ATOM     10  C   UNL     1      44.472  12.424  11.080  0.00  0.00    +0.000 C 
BRANCH  10  14
ATOM     11  C   UNL     1      40.488  10.724  11.150  0.00  0.00    +0.000 A 
ATOM     12  C   UNL     1      40.739  11.992  11.691  0.00  0.00    +0.000 A 
ATOM     13  C   UNL     1      42.021  12.538  11.658  0.00  0.00    +0.000 A 
ATOM     14  C   UNL     1      43.089  11.819  11.108  0.00  0.00    +0.000 A 
ATOM     15  C   UNL     1      42.846  10.537  10.596  0.00  0.00    +0.000 A 
ATOM     16  C   UNL     1      41.558   9.994  10.620  0.00  0.00    +0.000 A 
BRANCH  11  18
ATOM     17  C   UNL     1      38.215  10.403  10.257  0.00  0.00    +0.000 C 
ATOM     18  C   UNL     1      39.148  10.126  11.178  0.00  0.00    +0.000 C 
BRANCH  17  20
ATOM     19  N   UNL     1      35.658   9.323  10.407  0.00  0.00    +0.000 NA
ATOM     20  C   UNL     1      36.817   9.813  10.339  0.00  0.00    +0.000 C 
ENDBRANCH  17  20
ENDBRANCH  11  18
ENDBRANCH  10  14
ENDBRANCH   8  10
ENDBRANCH   7   8
ENDBRANCH   1   7
BRANCH   4  21
ATOM     21  C   UNL     1      46.431   5.531  13.228  0.00  0.00    +0.000 C 
BRANCH  21  22
ATOM     22  N   UNL     1      46.953   5.369  14.560  0.00  0.00    +0.000 N 
ATOM     23  C   UNL     1      47.355   4.142  15.019  0.00  0.00    +0.000 C 
ATOM     24  O   UNL     1      47.337   3.142  14.304  0.00  0.00    +0.000 OA
ATOM     25  H   UNL     1      46.768   6.118  15.221  0.00  0.00    +0.000 HD
BRANCH  23  26
ATOM     26  C   UNL     1      47.866   4.090  16.392  0.00  0.00    +0.000 A 
ATOM     27  C   UNL     1      47.375   3.134  17.272  0.00  0.00    +0.000 A 
ATOM     28  S   UNL     1      48.102   3.182  18.812  0.00  0.00    +0.000 S 
ATOM     29  C   UNL     1      49.066   4.513  18.377  0.00  0.00    +0.000 A 
ATOM     30  N   UNL     1      49.921   5.080  19.271  0.00  0.00    +0.000 NA
ATOM     31  C   UNL     1      50.567   6.099  18.817  0.00  0.00    +0.000 A 
ATOM     32  N   UNL     1      50.446   6.601  17.547  0.00  0.00    +0.000 N 
ATOM     33  C   UNL     1      49.618   6.043  16.602  0.00  0.00    +0.000 A 
ATOM     34  O   UNL     1      49.565   6.491  15.461  0.00  0.00    +0.000 OA
ATOM     35  C   UNL     1      48.853   4.902  17.066  0.00  0.00    +0.000 A 
ATOM     36  H   UNL     1      50.989   7.398  17.250  0.00  0.00    +0.000 HD
ENDBRANCH  23  26
ENDBRANCH  21  22
ENDBRANCH   4  21
TORSDOF 9
ENDMDL
MODEL 7
REMARK VINA RESULT:    -6.337      3.826      8.309
REMARK INTER + INTRA:         -10.953
REMARK INTER:                  -8.839
REMARK INTRA:                  -2.114
REMARK UNBOUND:                -1.282
REMARK  Name = 
REMARK  9 active torsions:
REMARK  status: ('A' for Active; 'I' for Inactive)
REMARK    1  A    between atoms: C_2  and  C_3
REMARK    2  A    between atoms: C_4  and  C_5
REMARK    3  A    between atoms: C_8  and  C_9
REMARK    4  A    between atoms: C_9  and  N_10
REMARK    5  A    between atoms: N_10  and  C_11
REMARK    6  A    between atoms: C_11  and  C_12
REMARK    7  A    between atoms: C_15  and  C_16
REMARK    8  A    between atoms: C_16  and  N_17
REMARK    9  A    between atoms: C_18  and  C_20
REMARK                            x       y       z     vdW  Elec       q    Type
REMARK                         _______ _______ _______ _____ _____    ______ ____
ROOT
ATOM      1  C   UNL     1      50.839  10.208  14.993  0.00  0.00    +0.000 A 
ATOM      2  C   UNL     1      51.561   9.003  14.974  0.00  0.00    +0.000 A 
ATOM      3  C   UNL     1      50.924   7.784  15.211  0.00  0.00    +0.000 A 
ATOM      4  C   UNL     1      49.551   7.741  15.482  0.00  0.00    +0.000 A 
ATOM      5  C   UNL     1      48.837   8.945  15.549  0.00  0.00    +0.000 A 
ATOM      6  C   UNL     1      49.473  10.164  15.299  0.00  0.00    +0.000 A 
ENDROOT
BRANCH   1   7
ATOM      7  C   UNL     1      51.523  11.528  14.710  0.00  0.00    +0.000 C 
BRANCH   7   8
ATOM      8  N   UNL     1      52.084  11.552  13.363  0.00  0.00    +0.000 NA
ATOM      9  H   UNL     1      53.064  11.824  13.405  0.00  0.00    +0.000 HD
BRANCH   8  10
ATOM     10  C   UNL     1      51.376  12.493  12.499  0.00  0.00    +0.000 C 
BRANCH  10  14
ATOM     11  C   UNL     1      47.368  11.046  11.716  0.00  0.00    +0.000 A 
ATOM     12  C   UNL     1      48.490  10.311  11.312  0.00  0.00    +0.000 A 
ATOM     13  C   UNL     1      49.778  10.778  11.574  0.00  0.00    +0.000 A 
ATOM     14  C   UNL     1      49.975  12.002  12.223  0.00  0.00    +0.000 A 
ATOM     15  C   UNL     1      48.854  12.754  12.599  0.00  0.00    +0.000 A 
ATOM     16  C   UNL     1      47.563  12.281  12.345  0.00  0.00    +0.000 A 
BRANCH  11  18
ATOM     17  C   UNL     1      44.944  11.400  11.460  0.00  0.00    +0.000 C 
ATOM     18  C   UNL     1      46.003  10.579  11.447  0.00  0.00    +0.000 C 
BRANCH  17  20
ATOM     19  N   UNL     1      42.364  10.451  11.044  0.00  0.00    +0.000 NA
ATOM     20  C   UNL     1      43.534  10.882  11.232  0.00  0.00    +0.000 C 
ENDBRANCH  17  20
ENDBRANCH  11  18
ENDBRANCH  10  14
ENDBRANCH   8  10
ENDBRANCH   7   8
ENDBRANCH   1   7
BRANCH   4  21
ATOM     21  C   UNL     1      48.857   6.432  15.743  0.00  0.00    +0.000 C 
BRANCH  21  22
ATOM     22  N   UNL     1      47.665   6.311  14.944  0.00  0.00    +0.000 N 
ATOM     23  C   UNL     1      47.736   6.135  13.588  0.00  0.00    +0.000 C 
ATOM     24  O   UNL     1      48.810   6.020  13.002  0.00  0.00    +0.000 OA
ATOM     25  H   UNL     1      46.794   6.622  15.367  0.00  0.00    +0.000 HD
BRANCH  23  26
ATOM     26  C   UNL     1      46.460   6.028  12.871  0.00  0.00    +0.000 A 
ATOM     27  C   UNL     1      45.858   7.174  12.367  0.00  0.00    +0.000 A 
ATOM     28  S   UNL     1      44.406   6.873  11.528  0.00  0.00    +0.000 S 
ATOM     29  C   UNL     1      44.502   5.206  11.849  0.00  0.00    +0.000 A 
ATOM     30  N   UNL     1      43.531   4.354  11.421  0.00  0.00    +0.000 NA
ATOM     31  C   UNL     1      43.714   3.123  11.759  0.00  0.00    +0.000 A 
ATOM     32  N   UNL     1      44.785   2.662  12.480  0.00  0.00    +0.000 N 
ATOM     33  C   UNL     1      45.804   3.479  12.907  0.00  0.00    +0.000 A 
ATOM     34  O   UNL     1      46.770   3.026  13.514  0.00  0.00    +0.000 OA
ATOM     35  C   UNL     1      45.638   4.879  12.568  0.00  0.00    +0.000 A 
ATOM     36  H   UNL     1      44.875   1.682  12.704  0.00  0.00    +0.000 HD
ENDBRANCH  23  26
ENDBRANCH  21  22
ENDBRANCH   4  21
TORSDOF 9
ENDMDL
MODEL 8
REMARK VINA RESULT:    -6.288      3.086      5.309
REMARK INTER + INTRA:         -10.878
REMARK INTER:                  -8.830
REMARK INTRA:                  -2.048
REMARK UNBOUND:                -1.282
REMARK  Name = 
REMARK  9 active torsions:
REMARK  status: ('A' for Active; 'I' for Inactive)
REMARK    1  A    between atoms: C_2  and  C_3
REMARK    2  A    between atoms: C_4  and  C_5
REMARK    3  A    between atoms: C_8  and  C_9
REMARK    4  A    between atoms: C_9  and  N_10
REMARK    5  A    between atoms: N_10  and  C_11
REMARK    6  A    between atoms: C_11  and  C_12
REMARK    7  A    between atoms: C_15  and  C_16
REMARK    8  A    between atoms: C_16  and  N_17
REMARK    9  A    between atoms: C_18  and  C_20
REMARK                            x       y       z     vdW  Elec       q    Type
REMARK                         _______ _______ _______ _____ _____    ______ ____
ROOT
ATOM      1  C   UNL     1      49.355   9.333  15.079  0.00  0.00    +0.000 A 
ATOM      2  C   UNL     1      50.148   8.228  14.726  0.00  0.00    +0.000 A 
ATOM      3  C   UNL     1      49.956   6.987  15.336  0.00  0.00    +0.000 A 
ATOM      4  C   UNL     1      48.973   6.824  16.319  0.00  0.00    +0.000 A 
ATOM      5  C   UNL     1      48.213   7.935  16.707  0.00  0.00    +0.000 A 
ATOM      6  C   UNL     1      48.396   9.174  16.087  0.00  0.00    +0.000 A 
ENDROOT
BRANCH   1   7
ATOM      7  C   UNL     1      49.543  10.672  14.400  0.00  0.00    +0.000 C 
BRANCH   7   8
ATOM      8  N   UNL     1      48.344  11.063  13.665  0.00  0.00    +0.000 NA
ATOM      9  H   UNL     1      47.516  10.752  14.169  0.00  0.00    +0.000 HD
BRANCH   8  10
ATOM     10  C   UNL     1      48.318  10.483  12.325  0.00  0.00    +0.000 C 
BRANCH  10  14
ATOM     11  C   UNL     1      46.154   6.729  12.347  0.00  0.00    +0.000 A 
ATOM     12  C   UNL     1      47.442   6.814  11.802  0.00  0.00    +0.000 A 
ATOM     13  C   UNL     1      48.137   8.023  11.805  0.00  0.00    +0.000 A 
ATOM     14  C   UNL     1      47.551   9.182  12.330  0.00  0.00    +0.000 A 
ATOM     15  C   UNL     1      46.251   9.105  12.846  0.00  0.00    +0.000 A 
ATOM     16  C   UNL     1      45.558   7.890  12.851  0.00  0.00    +0.000 A 
BRANCH  11  18
ATOM     17  C   UNL     1      44.732   5.026  11.278  0.00  0.00    +0.000 C 
ATOM     18  C   UNL     1      45.401   5.470  12.351  0.00  0.00    +0.000 C 
BRANCH  17  20
ATOM     19  N   UNL     1      43.235   2.685  11.363  0.00  0.00    +0.000 NA
ATOM     20  C   UNL     1      43.914   3.746  11.325  0.00  0.00    +0.000 C 
ENDBRANCH  17  20
ENDBRANCH  11  18
ENDBRANCH  10  14
ENDBRANCH   8  10
ENDBRANCH   7   8
ENDBRANCH   1   7
BRANCH   4  21
ATOM     21  C   UNL     1      48.763   5.490  16.985  0.00  0.00    +0.000 C 
BRANCH  21  22
ATOM     22  N   UNL     1      50.020   4.834  17.236  0.00  0.00    +0.000 N 
ATOM     23  C   UNL     1      50.455   4.603  18.514  0.00  0.00    +0.000 C 
ATOM     24  O   UNL     1      49.775   4.893  19.496  0.00  0.00    +0.000 OA
ATOM     25  H   UNL     1      50.680   4.793  16.465  0.00  0.00    +0.000 HD
BRANCH  23  26
ATOM     26  C   UNL     1      51.752   3.932  18.656  0.00  0.00    +0.000 A 
ATOM     27  C   UNL     1      52.787   4.572  19.326  0.00  0.00    +0.000 A 
ATOM     28  S   UNL     1      54.210   3.642  19.438  0.00  0.00    +0.000 S 
ATOM     29  C   UNL     1      53.513   2.368  18.553  0.00  0.00    +0.000 A 
ATOM     30  N   UNL     1      54.225   1.246  18.262  0.00  0.00    +0.000 NA
ATOM     31  C   UNL     1      53.585   0.375  17.560  0.00  0.00    +0.000 A 
ATOM     32  N   UNL     1      52.292   0.517  17.127  0.00  0.00    +0.000 N 
ATOM     33  C   UNL     1      51.525   1.619  17.420  0.00  0.00    +0.000 A 
ATOM     34  O   UNL     1      50.356   1.695  17.053  0.00  0.00    +0.000 OA
ATOM     35  C   UNL     1      52.204   2.639  18.195  0.00  0.00    +0.000 A 
ATOM     36  H   UNL     1      51.844  -0.209  16.587  0.00  0.00    +0.000 HD
ENDBRANCH  23  26
ENDBRANCH  21  22
ENDBRANCH   4  21
TORSDOF 9
ENDMDL
MODEL 9
REMARK VINA RESULT:    -6.214      3.500      9.703
REMARK INTER + INTRA:         -10.766
REMARK INTER:                  -9.171
REMARK INTRA:                  -1.594
REMARK UNBOUND:                -1.282
REMARK  Name = 
REMARK  9 active torsions:
REMARK  status: ('A' for Active; 'I' for Inactive)
REMARK    1  A    between atoms: C_2  and  C_3
REMARK    2  A    between atoms: C_4  and  C_5
REMARK    3  A    between atoms: C_8  and  C_9
REMARK    4  A    between atoms: C_9  and  N_10
REMARK    5  A    between atoms: N_10  and  C_11
REMARK    6  A    between atoms: C_11  and  C_12
REMARK    7  A    between atoms: C_15  and  C_16
REMARK    8  A    between atoms: C_16  and  N_17
REMARK    9  A    between atoms: C_18  and  C_20
REMARK                            x       y       z     vdW  Elec       q    Type
REMARK                         _______ _______ _______ _____ _____    ______ ____
ROOT
ATOM      1  C   UNL     1      50.577   8.774  11.551  0.00  0.00    +0.000 A 
ATOM      2  C   UNL     1      49.808   9.888  11.925  0.00  0.00    +0.000 A 
ATOM      3  C   UNL     1      48.481   9.738  12.331  0.00  0.00    +0.000 A 
ATOM      4  C   UNL     1      47.888   8.470  12.364  0.00  0.00    +0.000 A 
ATOM      5  C   UNL     1      48.637   7.362  11.946  0.00  0.00    +0.000 A 
ATOM      6  C   UNL     1      49.970   7.512  11.552  0.00  0.00    +0.000 A 
ENDROOT
BRANCH   1   7
ATOM      7  C   UNL     1      52.023   8.931  11.137  0.00  0.00    +0.000 C 
BRANCH   7   8
ATOM      8  N   UNL     1      52.901   8.106  11.961  0.00  0.00    +0.000 NA
ATOM      9  H   UNL     1      52.435   7.230  12.186  0.00  0.00    +0.000 HD
BRANCH   8  10
ATOM     10  C   UNL     1      53.259   8.777  13.207  0.00  0.00    +0.000 C 
BRANCH  10  14
ATOM     11  C   UNL     1      51.746   6.526  16.586  0.00  0.00    +0.000 A 
ATOM     12  C   UNL     1      50.894   7.328  15.816  0.00  0.00    +0.000 A 
ATOM     13  C   UNL     1      51.384   8.044  14.724  0.00  0.00    +0.000 A 
ATOM     14  C   UNL     1      52.744   7.996  14.393  0.00  0.00    +0.000 A 
ATOM     15  C   UNL     1      53.603   7.220  15.182  0.00  0.00    +0.000 A 
ATOM     16  C   UNL     1      53.109   6.495  16.270  0.00  0.00    +0.000 A 
BRANCH  11  18
ATOM     17  C   UNL     1      51.073   6.326  18.947  0.00  0.00    +0.000 C 
ATOM     18  C   UNL     1      51.254   5.768  17.743  0.00  0.00    +0.000 C 
BRANCH  17  20
ATOM     19  N   UNL     1      50.235   4.828  21.134  0.00  0.00    +0.000 NA
ATOM     20  C   UNL     1      50.615   5.507  20.142  0.00  0.00    +0.000 C 
ENDBRANCH  17  20
ENDBRANCH  11  18
ENDBRANCH  10  14
ENDBRANCH   8  10
ENDBRANCH   7   8
ENDBRANCH   1   7
BRANCH   4  21
ATOM     21  C   UNL     1      46.456   8.299  12.796  0.00  0.00    +0.000 C 
BRANCH  21  22
ATOM     22  N   UNL     1      45.994   6.961  12.536  0.00  0.00    +0.000 N 
ATOM     23  C   UNL     1      44.993   6.720  11.633  0.00  0.00    +0.000 C 
ATOM     24  O   UNL     1      44.484   7.622  10.970  0.00  0.00    +0.000 OA
ATOM     25  H   UNL     1      46.237   6.249  13.219  0.00  0.00    +0.000 HD
BRANCH  23  26
ATOM     26  C   UNL     1      44.596   5.320  11.449  0.00  0.00    +0.000 A 
ATOM     27  C   UNL     1      43.873   4.675  12.444  0.00  0.00    +0.000 A 
ATOM     28  S   UNL     1      43.457   3.069  12.057  0.00  0.00    +0.000 S 
ATOM     29  C   UNL     1      44.269   3.159  10.565  0.00  0.00    +0.000 A 
ATOM     30  N   UNL     1      44.323   2.086   9.731  0.00  0.00    +0.000 NA
ATOM     31  C   UNL     1      44.996   2.284   8.650  0.00  0.00    +0.000 A 
ATOM     32  N   UNL     1      45.615   3.461   8.319  0.00  0.00    +0.000 N 
ATOM     33  C   UNL     1      45.564   4.580   9.115  0.00  0.00    +0.000 A 
ATOM     34  O   UNL     1      46.094   5.631   8.769  0.00  0.00    +0.000 OA
ATOM     35  C   UNL     1      44.832   4.406  10.355  0.00  0.00    +0.000 A 
ATOM     36  H   UNL     1      46.120   3.555   7.450  0.00  0.00    +0.000 HD
ENDBRANCH  23  26
ENDBRANCH  21  22
ENDBRANCH   4  21
TORSDOF 9
ENDMDL
