MODEL 1
REMARK VINA RESULT:    -8.776      0.000      0.000
REMARK INTER + INTRA:         -13.459
REMARK INTER:                 -12.367
REMARK INTRA:                  -1.092
REMARK UNBOUND:                -1.092
REMARK  Name = 
REMARK  8 active torsions:
REMARK  status: ('A' for Active; 'I' for Inactive)
REMARK    1  A    between atoms: C_1  and  C_2
REMARK    2  A    between atoms: C_7  and  C_8
REMARK    3  A    between atoms: C_8  and  N_9
REMARK    4  A    between atoms: N_9  and  C_10
REMARK    5  A    between atoms: C_10  and  C_11
REMARK    6  A    between atoms: C_14  and  C_15
REMARK    7  A    between atoms: C_15  and  N_16
REMARK    8  A    between atoms: C_17  and  C_19
REMARK                            x       y       z     vdW  Elec       q    Type
REMARK                         _______ _______ _______ _____ _____    ______ ____
ROOT
ATOM      1  C   UNL     1      44.939   3.835  11.790  0.00  0.00    +0.000 A 
ATOM      2  C   UNL     1      45.154   5.098  11.243  0.00  0.00    +0.000 A 
ATOM      3  C   UNL     1      46.152   5.907  11.781  0.00  0.00    +0.000 A 
ATOM      4  C   UNL     1      46.920   5.446  12.854  0.00  0.00    +0.000 A 
ATOM      5  C   UNL     1      46.623   4.179  13.340  0.00  0.00    +0.000 A 
ATOM      6  F   UNL     1      47.329   3.696  14.375  0.00  0.00    +0.000 F 
ATOM      7  N   UNL     1      45.663   3.366  12.836  0.00  0.00    +0.000 NA
ENDROOT
BRANCH   1   8
ATOM      8  C   UNL     1      43.879   2.921  11.200  0.00  0.00    +0.000 C 
BRANCH   8   9
ATOM      9  N   UNL     1      43.874   2.866   9.725  0.00  0.00    +0.000 NA
ATOM     10  H   UNL     1      42.911   2.827   9.401  0.00  0.00    +0.000 HD
BRANCH   9  11
ATOM     11  C   UNL     1      44.585   1.701   9.194  0.00  0.00    +0.000 C 
BRANCH  11  18
ATOM     12  C   UNL     1      46.625  -0.242   7.851  0.00  0.00    +0.000 C 
ATOM     13  C   UNL     1      46.649   1.253   7.676  0.00  0.00    +0.000 A 
ATOM     14  C   UNL     1      47.670   1.786   6.862  0.00  0.00    +0.000 A 
ATOM     15  C   UNL     1      47.770   3.156   6.626  0.00  0.00    +0.000 A 
ATOM     16  C   UNL     1      46.850   4.021   7.201  0.00  0.00    +0.000 A 
ATOM     17  C   UNL     1      45.840   3.515   8.019  0.00  0.00    +0.000 A 
ATOM     18  C   UNL     1      45.725   2.133   8.284  0.00  0.00    +0.000 A 
ENDBRANCH  11  18
ENDBRANCH   9  11
ENDBRANCH   8   9
ENDBRANCH   1   8
BRANCH   4  19
ATOM     19  C   UNL     1      48.012   6.295  13.435  0.00  0.00    +0.000 C 
BRANCH  19  20
ATOM     20  N   UNL     1      47.899   6.422  14.869  0.00  0.00    +0.000 N 
ATOM     21  C   UNL     1      48.996   6.648  15.669  0.00  0.00    +0.000 C 
ATOM     22  O   UNL     1      50.118   6.843  15.214  0.00  0.00    +0.000 OA
ATOM     23  H   UNL     1      47.092   5.979  15.295  0.00  0.00    +0.000 HD
BRANCH  21  24
ATOM     24  C   UNL     1      48.730   6.733  17.109  0.00  0.00    +0.000 A 
ATOM     25  C   UNL     1      48.401   7.946  17.695  0.00  0.00    +0.000 A 
ATOM     26  S   UNL     1      48.086   7.830  19.371  0.00  0.00    +0.000 S 
ATOM     27  C   UNL     1      48.413   6.161  19.373  0.00  0.00    +0.000 A 
ATOM     28  N   UNL     1      48.340   5.426  20.517  0.00  0.00    +0.000 NA
ATOM     29  C   UNL     1      48.635   4.180  20.372  0.00  0.00    +0.000 A 
ATOM     30  N   UNL     1      48.997   3.593  19.187  0.00  0.00    +0.000 N 
ATOM     31  C   UNL     1      49.071   4.284  18.004  0.00  0.00    +0.000 A 
ATOM     32  O   UNL     1      49.355   3.733  16.955  0.00  0.00    +0.000 OA
ATOM     33  C   UNL     1      48.751   5.697  18.115  0.00  0.00    +0.000 A 
ATOM     34  H   UNL     1      49.201   2.606  19.133  0.00  0.00    +0.000 HD
ENDBRANCH  21  24
ENDBRANCH  19  20
ENDBRANCH   4  19
TORSDOF 7
ENDMDL
MODEL 2
REMARK VINA RESULT:    -8.324      1.571      2.558
REMARK INTER + INTRA:         -12.822
REMARK INTER:                 -11.736
REMARK INTRA:                  -1.087
REMARK UNBOUND:                -1.092
REMARK  Name = 
REMARK  8 active torsions:
REMARK  status: ('A' for Active; 'I' for Inactive)
REMARK    1  A    between atoms: C_1  and  C_2
REMARK    2  A    between atoms: C_7  and  C_8
REMARK    3  A    between atoms: C_8  and  N_9
REMARK    4  A    between atoms: N_9  and  C_10
REMARK    5  A    between atoms: C_10  and  C_11
REMARK    6  A    between atoms: C_14  and  C_15
REMARK    7  A    between atoms: C_15  and  N_16
REMARK    8  A    between atoms: C_17  and  C_19
REMARK                            x       y       z     vdW  Elec       q    Type
REMARK                         _______ _______ _______ _____ _____    ______ ____
ROOT
ATOM      1  C   UNL     1      45.285   4.348  12.289  0.00  0.00    +0.000 A 
ATOM      2  C   UNL     1      45.611   5.641  11.885  0.00  0.00    +0.000 A 
ATOM      3  C   UNL     1      46.595   6.339  12.579  0.00  0.00    +0.000 A 
ATOM      4  C   UNL     1      47.241   5.739  13.664  0.00  0.00    +0.000 A 
ATOM      5  C   UNL     1      46.840   4.453  14.001  0.00  0.00    +0.000 A 
ATOM      6  F   UNL     1      47.427   3.838  15.040  0.00  0.00    +0.000 F 
ATOM      7  N   UNL     1      45.890   3.746  13.342  0.00  0.00    +0.000 NA
ENDROOT
BRANCH   1   8
ATOM      8  C   UNL     1      44.238   3.554  11.528  0.00  0.00    +0.000 C 
BRANCH   8   9
ATOM      9  N   UNL     1      44.774   2.403  10.776  0.00  0.00    +0.000 NA
ATOM     10  H   UNL     1      45.790   2.434  10.806  0.00  0.00    +0.000 HD
BRANCH   9  11
ATOM     11  C   UNL     1      44.356   2.392   9.373  0.00  0.00    +0.000 C 
BRANCH  11  18
ATOM     12  C   UNL     1      45.918   4.839   8.226  0.00  0.00    +0.000 C 
ATOM     13  C   UNL     1      46.271   3.406   7.931  0.00  0.00    +0.000 A 
ATOM     14  C   UNL     1      47.368   3.179   7.075  0.00  0.00    +0.000 A 
ATOM     15  C   UNL     1      47.782   1.889   6.752  0.00  0.00    +0.000 A 
ATOM     16  C   UNL     1      47.107   0.797   7.279  0.00  0.00    +0.000 A 
ATOM     17  C   UNL     1      46.012   1.000   8.119  0.00  0.00    +0.000 A 
ATOM     18  C   UNL     1      45.564   2.297   8.451  0.00  0.00    +0.000 A 
ENDBRANCH  11  18
ENDBRANCH   9  11
ENDBRANCH   8   9
ENDBRANCH   1   8
BRANCH   4  19
ATOM     19  C   UNL     1      48.318   6.468  14.413  0.00  0.00    +0.000 C 
BRANCH  19  20
ATOM     20  N   UNL     1      48.111   6.429  15.842  0.00  0.00    +0.000 N 
ATOM     21  C   UNL     1      49.107   6.050  16.712  0.00  0.00    +0.000 C 
ATOM     22  O   UNL     1      50.252   5.808  16.344  0.00  0.00    +0.000 OA
ATOM     23  H   UNL     1      47.151   6.318  16.151  0.00  0.00    +0.000 HD
BRANCH  21  24
ATOM     24  C   UNL     1      48.743   6.037  18.133  0.00  0.00    +0.000 A 
ATOM     25  C   UNL     1      48.900   4.887  18.892  0.00  0.00    +0.000 A 
ATOM     26  S   UNL     1      48.462   5.087  20.532  0.00  0.00    +0.000 S 
ATOM     27  C   UNL     1      48.017   6.708  20.273  0.00  0.00    +0.000 A 
ATOM     28  N   UNL     1      47.532   7.480  21.284  0.00  0.00    +0.000 NA
ATOM     29  C   UNL     1      47.215   8.679  20.937  0.00  0.00    +0.000 A 
ATOM     30  N   UNL     1      47.339   9.187  19.669  0.00  0.00    +0.000 N 
ATOM     31  C   UNL     1      47.837   8.457  18.619  0.00  0.00    +0.000 A 
ATOM     32  O   UNL     1      47.976   8.942  17.509  0.00  0.00    +0.000 OA
ATOM     33  C   UNL     1      48.205   7.093  18.958  0.00  0.00    +0.000 A 
ATOM     34  H   UNL     1      47.090  10.142  19.462  0.00  0.00    +0.000 HD
ENDBRANCH  21  24
ENDBRANCH  19  20
ENDBRANCH   4  19
TORSDOF 7
ENDMDL
MODEL 3
REMARK VINA RESULT:    -8.303      1.500      1.679
REMARK INTER + INTRA:         -12.792
REMARK INTER:                 -11.691
REMARK INTRA:                  -1.101
REMARK UNBOUND:                -1.092
REMARK  Name = 
REMARK  8 active torsions:
REMARK  status: ('A' for Active; 'I' for Inactive)
REMARK    1  A    between atoms: C_1  and  C_2
REMARK    2  A    between atoms: C_7  and  C_8
REMARK    3  A    between atoms: C_8  and  N_9
REMARK    4  A    between atoms: N_9  and  C_10
REMARK    5  A    between atoms: C_10  and  C_11
REMARK    6  A    between atoms: C_14  and  C_15
REMARK    7  A    between atoms: C_15  and  N_16
REMARK    8  A    between atoms: C_17  and  C_19
REMARK                            x       y       z     vdW  Elec       q    Type
REMARK                         _______ _______ _______ _____ _____    ______ ____
ROOT
ATOM      1  C   UNL     1      44.605   4.291  11.415  0.00  0.00    +0.000 A 
ATOM      2  C   UNL     1      45.500   3.890  12.404  0.00  0.00    +0.000 A 
ATOM      3  C   UNL     1      46.352   4.834  12.970  0.00  0.00    +0.000 A 
ATOM      4  C   UNL     1      46.302   6.164  12.542  0.00  0.00    +0.000 A 
ATOM      5  C   UNL     1      45.387   6.467  11.542  0.00  0.00    +0.000 A 
ATOM      6  F   UNL     1      45.306   7.730  11.094  0.00  0.00    +0.000 F 
ATOM      7  N   UNL     1      44.540   5.573  10.976  0.00  0.00    +0.000 NA
ENDROOT
BRANCH   1   8
ATOM      8  C   UNL     1      43.642   3.288  10.806  0.00  0.00    +0.000 C 
BRANCH   8   9
ATOM      9  N   UNL     1      43.945   2.922   9.408  0.00  0.00    +0.000 NA
ATOM     10  H   UNL     1      43.106   2.541   8.979  0.00  0.00    +0.000 HD
BRANCH   9  11
ATOM     11  C   UNL     1      45.012   1.926   9.297  0.00  0.00    +0.000 C 
BRANCH  11  18
ATOM     12  C   UNL     1      46.685  -0.203   7.744  0.00  0.00    +0.000 C 
ATOM     13  C   UNL     1      46.667   1.263   7.402  0.00  0.00    +0.000 A 
ATOM     14  C   UNL     1      47.470   1.678   6.319  0.00  0.00    +0.000 A 
ATOM     15  C   UNL     1      47.512   3.010   5.915  0.00  0.00    +0.000 A 
ATOM     16  C   UNL     1      46.751   3.956   6.587  0.00  0.00    +0.000 A 
ATOM     17  C   UNL     1      45.959   3.568   7.667  0.00  0.00    +0.000 A 
ATOM     18  C   UNL     1      45.910   2.227   8.105  0.00  0.00    +0.000 A 
ENDBRANCH  11  18
ENDBRANCH   9  11
ENDBRANCH   8   9
ENDBRANCH   1   8
BRANCH   4  19
ATOM     19  C   UNL     1      47.199   7.200  13.153  0.00  0.00    +0.000 C 
BRANCH  19  20
ATOM     20  N   UNL     1      47.504   6.910  14.534  0.00  0.00    +0.000 N 
ATOM     21  C   UNL     1      48.794   6.925  15.013  0.00  0.00    +0.000 C 
ATOM     22  O   UNL     1      49.751   7.268  14.328  0.00  0.00    +0.000 OA
ATOM     23  H   UNL     1      46.825   6.344  15.033  0.00  0.00    +0.000 HD
BRANCH  21  24
ATOM     24  C   UNL     1      48.952   6.589  16.433  0.00  0.00    +0.000 A 
ATOM     25  C   UNL     1      49.430   7.531  17.332  0.00  0.00    +0.000 A 
ATOM     26  S   UNL     1      49.500   6.962  18.942  0.00  0.00    +0.000 S 
ATOM     27  C   UNL     1      48.927   5.428  18.484  0.00  0.00    +0.000 A 
ATOM     28  N   UNL     1      48.760   4.432  19.397  0.00  0.00    +0.000 NA
ATOM     29  C   UNL     1      48.340   3.319  18.904  0.00  0.00    +0.000 A 
ATOM     30  N   UNL     1      48.068   3.102  17.577  0.00  0.00    +0.000 N 
ATOM     31  C   UNL     1      48.203   4.075  16.620  0.00  0.00    +0.000 A 
ATOM     32  O   UNL     1      47.915   3.873  15.452  0.00  0.00    +0.000 OA
ATOM     33  C   UNL     1      48.679   5.352  17.126  0.00  0.00    +0.000 A 
ATOM     34  H   UNL     1      47.724   2.211  17.253  0.00  0.00    +0.000 HD
ENDBRANCH  21  24
ENDBRANCH  19  20
ENDBRANCH   4  19
TORSDOF 7
ENDMDL
MODEL 4
REMARK VINA RESULT:    -7.798      1.569      2.245
REMARK INTER + INTRA:         -12.080
REMARK INTER:                 -10.922
REMARK INTRA:                  -1.159
REMARK UNBOUND:                -1.092
REMARK  Name = 
REMARK  8 active torsions:
REMARK  status: ('A' for Active; 'I' for Inactive)
REMARK    1  A    between atoms: C_1  and  C_2
REMARK    2  A    between atoms: C_7  and  C_8
REMARK    3  A    between atoms: C_8  and  N_9
REMARK    4  A    between atoms: N_9  and  C_10
REMARK    5  A    between atoms: C_10  and  C_11
REMARK    6  A    between atoms: C_14  and  C_15
REMARK    7  A    between atoms: C_15  and  N_16
REMARK    8  A    between atoms: C_17  and  C_19
REMARK                            x       y       z     vdW  Elec       q    Type
REMARK                         _______ _______ _______ _____ _____    ______ ____
ROOT
ATOM      1  C   UNL     1      44.656   4.668  11.833  0.00  0.00    +0.000 A 
ATOM      2  C   UNL     1      44.076   5.914  11.611  0.00  0.00    +0.000 A 
ATOM      3  C   UNL     1      44.787   7.062  11.947  0.00  0.00    +0.000 A 
ATOM      4  C   UNL     1      46.067   6.952  12.500  0.00  0.00    +0.000 A 
ATOM      5  C   UNL     1      46.557   5.668  12.696  0.00  0.00    +0.000 A 
ATOM      6  F   UNL     1      47.779   5.512  13.230  0.00  0.00    +0.000 F 
ATOM      7  N   UNL     1      45.892   4.532  12.374  0.00  0.00    +0.000 NA
ENDROOT
BRANCH   1   8
ATOM      8  C   UNL     1      43.914   3.402  11.444  0.00  0.00    +0.000 C 
BRANCH   8   9
ATOM      9  N   UNL     1      44.738   2.406  10.732  0.00  0.00    +0.000 NA
ATOM     10  H   UNL     1      45.710   2.705  10.758  0.00  0.00    +0.000 HD
BRANCH   9  11
ATOM     11  C   UNL     1      44.347   2.236   9.331  0.00  0.00    +0.000 C 
BRANCH  11  18
ATOM     12  C   UNL     1      45.749   4.819   8.280  0.00  0.00    +0.000 C 
ATOM     13  C   UNL     1      46.204   3.423   7.947  0.00  0.00    +0.000 A 
ATOM     14  C   UNL     1      47.324   3.299   7.100  0.00  0.00    +0.000 A 
ATOM     15  C   UNL     1      47.830   2.051   6.744  0.00  0.00    +0.000 A 
ATOM     16  C   UNL     1      47.226   0.900   7.229  0.00  0.00    +0.000 A 
ATOM     17  C   UNL     1      46.110   1.001   8.059  0.00  0.00    +0.000 A 
ATOM     18  C   UNL     1      45.569   2.253   8.424  0.00  0.00    +0.000 A 
ENDBRANCH  11  18
ENDBRANCH   9  11
ENDBRANCH   8   9
ENDBRANCH   1   8
BRANCH   4  19
ATOM     19  C   UNL     1      46.858   8.178  12.851  0.00  0.00    +0.000 C 
BRANCH  19  20
ATOM     20  N   UNL     1      47.147   8.253  14.264  0.00  0.00    +0.000 N 
ATOM     21  C   UNL     1      48.254   8.914  14.746  0.00  0.00    +0.000 C 
ATOM     22  O   UNL     1      49.012   9.551  14.023  0.00  0.00    +0.000 OA
ATOM     23  H   UNL     1      46.751   7.519  14.841  0.00  0.00    +0.000 HD
BRANCH  21  24
ATOM     24  C   UNL     1      48.429   8.887  16.202  0.00  0.00    +0.000 A 
ATOM     25  C   UNL     1      48.166  10.015  16.965  0.00  0.00    +0.000 A 
ATOM     26  S   UNL     1      48.387   9.771  18.642  0.00  0.00    +0.000 S 
ATOM     27  C   UNL     1      48.875   8.160  18.399  0.00  0.00    +0.000 A 
ATOM     28  N   UNL     1      49.230   7.362  19.444  0.00  0.00    +0.000 NA
ATOM     29  C   UNL     1      49.598   6.174  19.109  0.00  0.00    +0.000 A 
ATOM     30  N   UNL     1      49.645   5.702  17.822  0.00  0.00    +0.000 N 
ATOM     31  C   UNL     1      49.283   6.458  16.736  0.00  0.00    +0.000 A 
ATOM     32  O   UNL     1      49.293   6.004  15.605  0.00  0.00    +0.000 OA
ATOM     33  C   UNL     1      48.863   7.811  17.061  0.00  0.00    +0.000 A 
ATOM     34  H   UNL     1      49.926   4.753  17.623  0.00  0.00    +0.000 HD
ENDBRANCH  21  24
ENDBRANCH  19  20
ENDBRANCH   4  19
TORSDOF 7
ENDMDL
MODEL 5
REMARK VINA RESULT:    -7.777      4.240      5.638
REMARK INTER + INTRA:         -12.051
REMARK INTER:                 -10.621
REMARK INTRA:                  -1.430
REMARK UNBOUND:                -1.092
REMARK  Name = 
REMARK  8 active torsions:
REMARK  status: ('A' for Active; 'I' for Inactive)
REMARK    1  A    between atoms: C_1  and  C_2
REMARK    2  A    between atoms: C_7  and  C_8
REMARK    3  A    between atoms: C_8  and  N_9
REMARK    4  A    between atoms: N_9  and  C_10
REMARK    5  A    between atoms: C_10  and  C_11
REMARK    6  A    between atoms: C_14  and  C_15
REMARK    7  A    between atoms: C_15  and  N_16
REMARK    8  A    between atoms: C_17  and  C_19
REMARK                            x       y       z     vdW  Elec       q    Type
REMARK                         _______ _______ _______ _____ _____    ______ ____
ROOT
ATOM      1  C   UNL     1      44.671   4.983  12.083  0.00  0.00    +0.000 A 
ATOM      2  C   UNL     1      44.048   6.050  11.440  0.00  0.00    +0.000 A 
ATOM      3  C   UNL     1      44.530   7.339  11.646  0.00  0.00    +0.000 A 
ATOM      4  C   UNL     1      45.626   7.547  12.489  0.00  0.00    +0.000 A 
ATOM      5  C   UNL     1      46.172   6.425  13.096  0.00  0.00    +0.000 A 
ATOM      6  F   UNL     1      47.222   6.575  13.920  0.00  0.00    +0.000 F 
ATOM      7  N   UNL     1      45.731   5.157  12.911  0.00  0.00    +0.000 NA
ENDROOT
BRANCH   1   8
ATOM      8  C   UNL     1      44.186   3.564  11.848  0.00  0.00    +0.000 C 
BRANCH   8   9
ATOM      9  N   UNL     1      45.094   2.735  11.031  0.00  0.00    +0.000 NA
ATOM     10  H   UNL     1      45.949   3.258  10.858  0.00  0.00    +0.000 HD
BRANCH   9  11
ATOM     11  C   UNL     1      44.516   2.359   9.739  0.00  0.00    +0.000 C 
BRANCH  11  18
ATOM     12  C   UNL     1      45.818   4.880   8.439  0.00  0.00    +0.000 C 
ATOM     13  C   UNL     1      46.177   3.466   8.070  0.00  0.00    +0.000 A 
ATOM     14  C   UNL     1      47.153   3.294   7.067  0.00  0.00    +0.000 A 
ATOM     15  C   UNL     1      47.565   2.025   6.664  0.00  0.00    +0.000 A 
ATOM     16  C   UNL     1      47.007   0.901   7.256  0.00  0.00    +0.000 A 
ATOM     17  C   UNL     1      46.032   1.050   8.242  0.00  0.00    +0.000 A 
ATOM     18  C   UNL     1      45.588   2.324   8.659  0.00  0.00    +0.000 A 
ENDBRANCH  11  18
ENDBRANCH   9  11
ENDBRANCH   8   9
ENDBRANCH   1   8
BRANCH   4  19
ATOM     19  C   UNL     1      46.172   8.928  12.709  0.00  0.00    +0.000 C 
BRANCH  19  20
ATOM     20  N   UNL     1      47.409   9.144  11.996  0.00  0.00    +0.000 N 
ATOM     21  C   UNL     1      48.381   9.996  12.467  0.00  0.00    +0.000 C 
ATOM     22  O   UNL     1      48.302  10.554  13.556  0.00  0.00    +0.000 OA
ATOM     23  H   UNL     1      47.386   8.964  10.997  0.00  0.00    +0.000 HD
BRANCH  21  24
ATOM     24  C   UNL     1      49.574  10.132  11.624  0.00  0.00    +0.000 A 
ATOM     25  C   UNL     1      49.934  11.365  11.103  0.00  0.00    +0.000 A 
ATOM     26  S   UNL     1      51.374  11.325  10.185  0.00  0.00    +0.000 S 
ATOM     27  C   UNL     1      51.546   9.650  10.426  0.00  0.00    +0.000 A 
ATOM     28  N   UNL     1      52.587   8.959   9.886  0.00  0.00    +0.000 NA
ATOM     29  C   UNL     1      52.577   7.695  10.133  0.00  0.00    +0.000 A 
ATOM     30  N   UNL     1      51.620   7.049  10.873  0.00  0.00    +0.000 N 
ATOM     31  C   UNL     1      50.560   7.700  11.452  0.00  0.00    +0.000 A 
ATOM     32  O   UNL     1      49.744   7.112  12.142  0.00  0.00    +0.000 OA
ATOM     33  C   UNL     1      50.524   9.131  11.199  0.00  0.00    +0.000 A 
ATOM     34  H   UNL     1      51.675   6.057  11.047  0.00  0.00    +0.000 HD
ENDBRANCH  21  24
ENDBRANCH  19  20
ENDBRANCH   4  19
TORSDOF 7
ENDMDL
MODEL 6
REMARK VINA RESULT:    -7.348      3.523      8.824
REMARK INTER + INTRA:         -11.447
REMARK INTER:                  -9.986
REMARK INTRA:                  -1.461
REMARK UNBOUND:                -1.092
REMARK  Name = 
REMARK  8 active torsions:
REMARK  status: ('A' for Active; 'I' for Inactive)
REMARK    1  A    between atoms: C_1  and  C_2
REMARK    2  A    between atoms: C_7  and  C_8
REMARK    3  A    between atoms: C_8  and  N_9
REMARK    4  A    between atoms: N_9  and  C_10
REMARK    5  A    between atoms: C_10  and  C_11
REMARK    6  A    between atoms: C_14  and  C_15
REMARK    7  A    between atoms: C_15  and  N_16
REMARK    8  A    between atoms: C_17  and  C_19
REMARK                            x       y       z     vdW  Elec       q    Type
REMARK                         _______ _______ _______ _____ _____    ______ ____
ROOT
ATOM      1  C   UNL     1      49.768   8.085  15.548  0.00  0.00    +0.000 A 
ATOM      2  C   UNL     1      48.513   8.687  15.591  0.00  0.00    +0.000 A 
ATOM      3  C   UNL     1      47.724   8.689  14.445  0.00  0.00    +0.000 A 
ATOM      4  C   UNL     1      48.196   8.091  13.272  0.00  0.00    +0.000 A 
ATOM      5  C   UNL     1      49.464   7.528  13.322  0.00  0.00    +0.000 A 
ATOM      6  F   UNL     1      49.963   6.947  12.219  0.00  0.00    +0.000 F 
ATOM      7  N   UNL     1      50.254   7.504  14.423  0.00  0.00    +0.000 NA
ENDROOT
BRANCH   1   8
ATOM      8  C   UNL     1      50.635   8.040  16.795  0.00  0.00    +0.000 C 
BRANCH   8   9
ATOM      9  N   UNL     1      51.217   6.716  17.085  0.00  0.00    +0.000 NA
ATOM     10  H   UNL     1      51.094   6.117  16.272  0.00  0.00    +0.000 HD
BRANCH   9  11
ATOM     11  C   UNL     1      50.597   6.059  18.238  0.00  0.00    +0.000 C 
BRANCH  11  18
ATOM     12  C   UNL     1      51.456   3.106  17.706  0.00  0.00    +0.000 C 
ATOM     13  C   UNL     1      50.048   3.612  17.544  0.00  0.00    +0.000 A 
ATOM     14  C   UNL     1      49.078   2.682  17.115  0.00  0.00    +0.000 A 
ATOM     15  C   UNL     1      47.744   3.049  16.949  0.00  0.00    +0.000 A 
ATOM     16  C   UNL     1      47.353   4.355  17.208  0.00  0.00    +0.000 A 
ATOM     17  C   UNL     1      48.299   5.292  17.622  0.00  0.00    +0.000 A 
ATOM     18  C   UNL     1      49.658   4.949  17.785  0.00  0.00    +0.000 A 
ENDBRANCH  11  18
ENDBRANCH   9  11
ENDBRANCH   8   9
ENDBRANCH   1   8
BRANCH   4  19
ATOM     19  C   UNL     1      47.352   8.066  12.032  0.00  0.00    +0.000 C 
BRANCH  19  20
ATOM     20  N   UNL     1      46.694   6.794  11.846  0.00  0.00    +0.000 N 
ATOM     21  C   UNL     1      45.328   6.694  11.710  0.00  0.00    +0.000 C 
ATOM     22  O   UNL     1      44.595   7.675  11.649  0.00  0.00    +0.000 OA
ATOM     23  H   UNL     1      47.192   5.979  12.188  0.00  0.00    +0.000 HD
BRANCH  21  24
ATOM     24  C   UNL     1      44.801   5.335  11.550  0.00  0.00    +0.000 A 
ATOM     25  C   UNL     1      44.097   4.725  12.577  0.00  0.00    +0.000 A 
ATOM     26  S   UNL     1      43.529   3.163  12.182  0.00  0.00    +0.000 S 
ATOM     27  C   UNL     1      44.234   3.237  10.636  0.00  0.00    +0.000 A 
ATOM     28  N   UNL     1      44.136   2.198   9.762  0.00  0.00    +0.000 NA
ATOM     29  C   UNL     1      44.736   2.386   8.638  0.00  0.00    +0.000 A 
ATOM     30  N   UNL     1      45.430   3.520   8.300  0.00  0.00    +0.000 N 
ATOM     31  C   UNL     1      45.545   4.601   9.137  0.00  0.00    +0.000 A 
ATOM     32  O   UNL     1      46.132   5.615   8.799  0.00  0.00    +0.000 OA
ATOM     33  C   UNL     1      44.887   4.437  10.422  0.00  0.00    +0.000 A 
ATOM     34  H   UNL     1      45.866   3.616   7.395  0.00  0.00    +0.000 HD
ENDBRANCH  21  24
ENDBRANCH  19  20
ENDBRANCH   4  19
TORSDOF 7
ENDMDL
MODEL 7
REMARK VINA RESULT:    -7.295      2.012      2.986
REMARK INTER + INTRA:         -11.373
REMARK INTER:                 -11.181
REMARK INTRA:                  -0.192
REMARK UNBOUND:                -1.092
REMARK  Name = 
REMARK  8 active torsions:
REMARK  status: ('A' for Active; 'I' for Inactive)
REMARK    1  A    between atoms: C_1  and  C_2
REMARK    2  A    between atoms: C_7  and  C_8
REMARK    3  A    between atoms: C_8  and  N_9
REMARK    4  A    between atoms: N_9  and  C_10
REMARK    5  A    between atoms: C_10  and  C_11
REMARK    6  A    between atoms: C_14  and  C_15
REMARK    7  A    between atoms: C_15  and  N_16
REMARK    8  A    between atoms: C_17  and  C_19
REMARK                            x       y       z     vdW  Elec       q    Type
REMARK                         _______ _______ _______ _____ _____    ______ ____
ROOT
ATOM      1  C   UNL     1      44.861   5.505  11.575  0.00  0.00    +0.000 A 
ATOM      2  C   UNL     1      45.392   4.521  12.405  0.00  0.00    +0.000 A 
ATOM      3  C   UNL     1      46.529   4.809  13.155  0.00  0.00    +0.000 A 
ATOM      4  C   UNL     1      47.120   6.073  13.067  0.00  0.00    +0.000 A 
ATOM      5  C   UNL     1      46.527   6.984  12.204  0.00  0.00    +0.000 A 
ATOM      6  F   UNL     1      47.063   8.210  12.081  0.00  0.00    +0.000 F 
ATOM      7  N   UNL     1      45.418   6.737  11.466  0.00  0.00    +0.000 NA
ENDROOT
BRANCH   1   8
ATOM      8  C   UNL     1      43.603   5.227  10.772  0.00  0.00    +0.000 C 
BRANCH   8   9
ATOM      9  N   UNL     1      43.844   4.604   9.456  0.00  0.00    +0.000 NA
ATOM     10  H   UNL     1      43.720   3.599   9.540  0.00  0.00    +0.000 HD
BRANCH   9  11
ATOM     11  C   UNL     1      45.191   4.860   8.941  0.00  0.00    +0.000 C 
BRANCH  11  18
ATOM     12  C   UNL     1      44.503   1.964   9.879  0.00  0.00    +0.000 C 
ATOM     13  C   UNL     1      45.483   2.279   8.781  0.00  0.00    +0.000 A 
ATOM     14  C   UNL     1      46.125   1.187   8.161  0.00  0.00    +0.000 A 
ATOM     15  C   UNL     1      47.038   1.374   7.126  0.00  0.00    +0.000 A 
ATOM     16  C   UNL     1      47.329   2.658   6.689  0.00  0.00    +0.000 A 
ATOM     17  C   UNL     1      46.713   3.752   7.296  0.00  0.00    +0.000 A 
ATOM     18  C   UNL     1      45.795   3.591   8.356  0.00  0.00    +0.000 A 
ENDBRANCH  11  18
ENDBRANCH   9  11
ENDBRANCH   8   9
ENDBRANCH   1   8
BRANCH   4  19
ATOM     19  C   UNL     1      48.335   6.409  13.882  0.00  0.00    +0.000 C 
BRANCH  19  20
ATOM     20  N   UNL     1      48.014   6.629  15.273  0.00  0.00    +0.000 N 
ATOM     21  C   UNL     1      48.876   6.272  16.284  0.00  0.00    +0.000 C 
ATOM     22  O   UNL     1      49.999   5.829  16.072  0.00  0.00    +0.000 OA
ATOM     23  H   UNL     1      47.027   6.694  15.499  0.00  0.00    +0.000 HD
BRANCH  21  24
ATOM     24  C   UNL     1      48.405   6.537  17.648  0.00  0.00    +0.000 A 
ATOM     25  C   UNL     1      48.250   5.500  18.555  0.00  0.00    +0.000 A 
ATOM     26  S   UNL     1      47.735   6.017  20.101  0.00  0.00    +0.000 S 
ATOM     27  C   UNL     1      47.670   7.640  19.597  0.00  0.00    +0.000 A 
ATOM     28  N   UNL     1      47.283   8.630  20.447  0.00  0.00    +0.000 NA
ATOM     29  C   UNL     1      47.260   9.807  19.923  0.00  0.00    +0.000 A 
ATOM     30  N   UNL     1      47.591  10.092  18.622  0.00  0.00    +0.000 N 
ATOM     31  C   UNL     1      48.003   9.134  17.731  0.00  0.00    +0.000 A 
ATOM     32  O   UNL     1      48.332   9.417  16.591  0.00  0.00    +0.000 OA
ATOM     33  C   UNL     1      48.042   7.787  18.273  0.00  0.00    +0.000 A 
ATOM     34  H   UNL     1      47.571  11.038  18.274  0.00  0.00    +0.000 HD
ENDBRANCH  21  24
ENDBRANCH  19  20
ENDBRANCH   4  19
TORSDOF 7
ENDMDL
MODEL 8
REMARK VINA RESULT:    -7.284      2.101      2.705
REMARK INTER + INTRA:         -11.357
REMARK INTER:                 -10.279
REMARK INTRA:                  -1.078
REMARK UNBOUND:                -1.092
REMARK  Name = 
REMARK  8 active torsions:
REMARK  status: ('A' for Active; 'I' for Inactive)
REMARK    1  A    between atoms: C_1  and  C_2
REMARK    2  A    between atoms: C_7  and  C_8
REMARK    3  A    between atoms: C_8  and  N_9
REMARK    4  A    between atoms: N_9  and  C_10
REMARK    5  A    between atoms: C_10  and  C_11
REMARK    6  A    between atoms: C_14  and  C_15
REMARK    7  A    between atoms: C_15  and  N_16
REMARK    8  A    between atoms: C_17  and  C_19
REMARK                            x       y       z     vdW  Elec       q    Type
REMARK                         _______ _______ _______ _____ _____    ______ ____
ROOT
ATOM      1  C   UNL     1      45.994   6.189  11.636  0.00  0.00    +0.000 A 
ATOM      2  C   UNL     1      46.951   5.754  12.551  0.00  0.00    +0.000 A 
ATOM      3  C   UNL     1      47.510   6.673  13.434  0.00  0.00    +0.000 A 
ATOM      4  C   UNL     1      47.108   8.011  13.395  0.00  0.00    +0.000 A 
ATOM      5  C   UNL     1      46.159   8.354  12.441  0.00  0.00    +0.000 A 
ATOM      6  F   UNL     1      45.747   9.629  12.360  0.00  0.00    +0.000 F 
ATOM      7  N   UNL     1      45.592   7.483  11.571  0.00  0.00    +0.000 NA
ENDROOT
BRANCH   1   8
ATOM      8  C   UNL     1      45.345   5.201  10.684  0.00  0.00    +0.000 C 
BRANCH   8   9
ATOM      9  N   UNL     1      45.679   5.415   9.262  0.00  0.00    +0.000 NA
ATOM     10  H   UNL     1      45.458   6.375   9.014  0.00  0.00    +0.000 HD
BRANCH   9  11
ATOM     11  C   UNL     1      44.940   4.526   8.362  0.00  0.00    +0.000 C 
BRANCH  11  18
ATOM     12  C   UNL     1      44.556   1.588   9.342  0.00  0.00    +0.000 C 
ATOM     13  C   UNL     1      45.631   2.018   8.381  0.00  0.00    +0.000 A 
ATOM     14  C   UNL     1      46.513   1.020   7.917  0.00  0.00    +0.000 A 
ATOM     15  C   UNL     1      47.533   1.314   7.015  0.00  0.00    +0.000 A 
ATOM     16  C   UNL     1      47.692   2.614   6.557  0.00  0.00    +0.000 A 
ATOM     17  C   UNL     1      46.838   3.618   7.012  0.00  0.00    +0.000 A 
ATOM     18  C   UNL     1      45.805   3.349   7.936  0.00  0.00    +0.000 A 
ENDBRANCH  11  18
ENDBRANCH   9  11
ENDBRANCH   8   9
ENDBRANCH   1   8
BRANCH   4  19
ATOM     19  C   UNL     1      47.685   9.013  14.352  0.00  0.00    +0.000 C 
BRANCH  19  20
ATOM     20  N   UNL     1      47.999   8.425  15.633  0.00  0.00    +0.000 N 
ATOM     21  C   UNL     1      48.863   9.027  16.519  0.00  0.00    +0.000 C 
ATOM     22  O   UNL     1      49.350  10.135  16.320  0.00  0.00    +0.000 OA
ATOM     23  H   UNL     1      47.879   7.420  15.705  0.00  0.00    +0.000 HD
BRANCH  21  24
ATOM     24  C   UNL     1      49.101   8.301  17.771  0.00  0.00    +0.000 A 
ATOM     25  C   UNL     1      48.817   8.891  18.993  0.00  0.00    +0.000 A 
ATOM     26  S   UNL     1      49.122   7.871  20.330  0.00  0.00    +0.000 S 
ATOM     27  C   UNL     1      49.676   6.620  19.320  0.00  0.00    +0.000 A 
ATOM     28  N   UNL     1      50.114   5.437  19.831  0.00  0.00    +0.000 NA
ATOM     29  C   UNL     1      50.524   4.592  18.950  0.00  0.00    +0.000 A 
ATOM     30  N   UNL     1      50.538   4.815  17.597  0.00  0.00    +0.000 N 
ATOM     31  C   UNL     1      50.094   5.982  17.029  0.00  0.00    +0.000 A 
ATOM     32  O   UNL     1      50.077   6.143  15.821  0.00  0.00    +0.000 OA
ATOM     33  C   UNL     1      49.623   6.972  17.984  0.00  0.00    +0.000 A 
ATOM     34  H   UNL     1      50.855   4.105  16.954  0.00  0.00    +0.000 HD
ENDBRANCH  21  24
ENDBRANCH  19  20
ENDBRANCH   4  19
TORSDOF 7
ENDMDL
MODEL 9
REMARK VINA RESULT:    -7.131      3.996      9.008
REMARK INTER + INTRA:         -11.141
REMARK INTER:                  -9.352
REMARK INTRA:                  -1.789
REMARK UNBOUND:                -1.092
REMARK  Name = 
REMARK  8 active torsions:
REMARK  status: ('A' for Active; 'I' for Inactive)
REMARK    1  A    between atoms: C_1  and  C_2
REMARK    2  A    between atoms: C_7  and  C_8
REMARK    3  A    between atoms: C_8  and  N_9
REMARK    4  A    between atoms: N_9  and  C_10
REMARK    5  A    between atoms: C_10  and  C_11
REMARK    6  A    between atoms: C_14  and  C_15
REMARK    7  A    between atoms: C_15  and  N_16
REMARK    8  A    between atoms: C_17  and  C_19
REMARK                            x       y       z     vdW  Elec       q    Type
REMARK                         _______ _______ _______ _____ _____    ______ ____
ROOT
ATOM      1  C   UNL     1      49.919   5.387  19.493  0.00  0.00    +0.000 A 
ATOM      2  C   UNL     1      50.444   4.446  18.610  0.00  0.00    +0.000 A 
ATOM      3  C   UNL     1      49.596   3.827  17.697  0.00  0.00    +0.000 A 
ATOM      4  C   UNL     1      48.236   4.153  17.677  0.00  0.00    +0.000 A 
ATOM      5  C   UNL     1      47.803   5.092  18.604  0.00  0.00    +0.000 A 
ATOM      6  F   UNL     1      46.504   5.433  18.627  0.00  0.00    +0.000 F 
ATOM      7  N   UNL     1      48.604   5.717  19.500  0.00  0.00    +0.000 NA
ENDROOT
BRANCH   1   8
ATOM      8  C   UNL     1      50.831   6.101  20.476  0.00  0.00    +0.000 C 
BRANCH   8   9
ATOM      9  N   UNL     1      50.827   7.572  20.353  0.00  0.00    +0.000 NA
ATOM     10  H   UNL     1      49.865   7.900  20.371  0.00  0.00    +0.000 HD
BRANCH   9  11
ATOM     11  C   UNL     1      51.451   8.043  19.115  0.00  0.00    +0.000 C 
BRANCH  11  18
ATOM     12  C   UNL     1      51.637   6.894  16.220  0.00  0.00    +0.000 C 
ATOM     13  C   UNL     1      50.490   7.732  16.718  0.00  0.00    +0.000 A 
ATOM     14  C   UNL     1      49.455   8.012  15.801  0.00  0.00    +0.000 A 
ATOM     15  C   UNL     1      48.344   8.767  16.169  0.00  0.00    +0.000 A 
ATOM     16  C   UNL     1      48.245   9.260  17.462  0.00  0.00    +0.000 A 
ATOM     17  C   UNL     1      49.263   9.004  18.381  0.00  0.00    +0.000 A 
ATOM     18  C   UNL     1      50.405   8.253  18.029  0.00  0.00    +0.000 A 
ENDBRANCH  11  18
ENDBRANCH   9  11
ENDBRANCH   8   9
ENDBRANCH   1   8
BRANCH   4  19
ATOM     19  C   UNL     1      47.309   3.511  16.688  0.00  0.00    +0.000 C 
BRANCH  19  20
ATOM     20  N   UNL     1      46.796   4.458  15.726  0.00  0.00    +0.000 N 
ATOM     21  C   UNL     1      46.852   4.223  14.372  0.00  0.00    +0.000 C 
ATOM     22  O   UNL     1      47.254   3.165  13.899  0.00  0.00    +0.000 OA
ATOM     23  H   UNL     1      46.748   5.425  16.032  0.00  0.00    +0.000 HD
BRANCH  21  24
ATOM     24  C   UNL     1      46.312   5.285  13.516  0.00  0.00    +0.000 A 
ATOM     25  C   UNL     1      47.061   6.420  13.243  0.00  0.00    +0.000 A 
ATOM     26  S   UNL     1      46.277   7.518  12.194  0.00  0.00    +0.000 S 
ATOM     27  C   UNL     1      44.898   6.528  12.098  0.00  0.00    +0.000 A 
ATOM     28  N   UNL     1      43.816   6.890  11.356  0.00  0.00    +0.000 NA
ATOM     29  C   UNL     1      42.837   6.054  11.394  0.00  0.00    +0.000 A 
ATOM     30  N   UNL     1      42.834   4.882  12.105  0.00  0.00    +0.000 N 
ATOM     31  C   UNL     1      43.904   4.462  12.855  0.00  0.00    +0.000 A 
ATOM     32  O   UNL     1      43.895   3.396  13.446  0.00  0.00    +0.000 OA
ATOM     33  C   UNL     1      45.035   5.375  12.848  0.00  0.00    +0.000 A 
ATOM     34  H   UNL     1      42.042   4.258  12.081  0.00  0.00    +0.000 HD
ENDBRANCH  21  24
ENDBRANCH  19  20
ENDBRANCH   4  19
TORSDOF 7
ENDMDL
