MODEL 1
REMARK VINA RESULT:    -8.294      0.000      0.000
REMARK INTER + INTRA:         -12.010
REMARK INTER:                 -11.204
REMARK INTRA:                  -0.806
REMARK UNBOUND:                -0.806
REMARK  Name = 
REMARK  6 active torsions:
REMARK  status: ('A' for Active; 'I' for Inactive)
REMARK    1  A    between atoms: C_2  and  C_4
REMARK    2  A    between atoms: C_7  and  C_8
REMARK    3  A    between atoms: C_8  and  C_9
REMARK    4  A    between atoms: C_9  and  O_10
REMARK    5  A    between atoms: O_10  and  C_11
REMARK    6  A    between atoms: C_15  and  N_16
REMARK                            x       y       z     vdW  Elec       q    Type
REMARK                         _______ _______ _______ _____ _____    ______ ____
ROOT
ATOM      1  O   UNL     1      44.085   5.159  12.725  0.00  0.00    +0.000 OA
ENDROOT
BRANCH   1   2
ATOM      2  C   UNL     1      45.411   5.477  12.911  0.00  0.00    +0.000 A 
ATOM      3  C   UNL     1      46.128   6.391  12.141  0.00  0.00    +0.000 A 
ATOM      4  C   UNL     1      47.445   6.701  12.460  0.00  0.00    +0.000 A 
ATOM      5  C   UNL     1      48.033   6.135  13.584  0.00  0.00    +0.000 A 
ATOM      6  C   UNL     1      47.336   5.237  14.400  0.00  0.00    +0.000 A 
ATOM      7  C   UNL     1      46.037   4.875  14.006  0.00  0.00    +0.000 A 
BRANCH   6   8
ATOM      8  N   UNL     1      47.897   4.762  15.563  0.00  0.00    +0.000 N 
ATOM      9  C   UNL     1      47.736   3.366  15.967  0.00  0.00    +0.000 C 
ATOM     10  C   UNL     1      47.087   3.264  17.360  0.00  0.00    +0.000 C 
ATOM     11  N   UNL     1      47.778   4.070  18.391  0.00  0.00    +0.000 NA
ATOM     12  C   UNL     1      47.843   5.478  17.931  0.00  0.00    +0.000 C 
ATOM     13  C   UNL     1      48.518   5.655  16.547  0.00  0.00    +0.000 C 
ATOM     14  H   UNL     1      48.735   3.724  18.464  0.00  0.00    +0.000 HD
ENDBRANCH   6   8
ENDBRANCH   1   2
BRANCH   1  15
ATOM     15  C   UNL     1      43.865   4.044  11.854  0.00  0.00    +0.000 C 
BRANCH  15  16
ATOM     16  C   UNL     1      43.712   4.513  10.409  0.00  0.00    +0.000 C 
BRANCH  16  20
ATOM     17  C   UNL     1      46.450   2.466   7.757  0.00  0.00    +0.000 A 
ATOM     18  C   UNL     1      46.357   3.854   7.710  0.00  0.00    +0.000 A 
ATOM     19  C   UNL     1      45.450   4.525   8.541  0.00  0.00    +0.000 A 
ATOM     20  C   UNL     1      44.637   3.807   9.437  0.00  0.00    +0.000 A 
ATOM     21  C   UNL     1      44.709   2.410   9.439  0.00  0.00    +0.000 A 
ATOM     22  C   UNL     1      45.610   1.737   8.603  0.00  0.00    +0.000 A 
BRANCH  17  24
ATOM     23  N   UNL     1      48.469   2.469   6.405  0.00  0.00    +0.000 N 
ATOM     24  C   UNL     1      47.419   1.734   6.897  0.00  0.00    +0.000 C 
ATOM     25  O   UNL     1      47.308   0.549   6.672  0.00  0.00    +0.000 OA
ATOM     26  H   UNL     1      49.181   1.951   5.912  0.00  0.00    +0.000 HD
ATOM     27  H   UNL     1      48.714   3.372   6.778  0.00  0.00    +0.000 HD
ENDBRANCH  17  24
ENDBRANCH  16  20
ENDBRANCH  15  16
ENDBRANCH   1  15
TORSDOF 6
ENDMDL
MODEL 2
REMARK VINA RESULT:    -7.788      2.420      3.819
REMARK INTER + INTRA:         -11.326
REMARK INTER:                 -10.325
REMARK INTRA:                  -1.001
REMARK UNBOUND:                -0.806
REMARK  Name = 
REMARK  6 active torsions:
REMARK  status: ('A' for Active; 'I' for Inactive)
REMARK    1  A    between atoms: C_2  and  C_4
REMARK    2  A    between atoms: C_7  and  C_8
REMARK    3  A    between atoms: C_8  and  C_9
REMARK    4  A    between atoms: C_9  and  O_10
REMARK    5  A    between atoms: O_10  and  C_11
REMARK    6  A    between atoms: C_15  and  N_16
REMARK                            x       y       z     vdW  Elec       q    Type
REMARK                         _______ _______ _______ _____ _____    ______ ____
ROOT
ATOM      1  O   UNL     1      43.632   5.519  12.421  0.00  0.00    +0.000 OA
ENDROOT
BRANCH   1   2
ATOM      2  C   UNL     1      44.944   5.632  12.823  0.00  0.00    +0.000 A 
ATOM      3  C   UNL     1      45.637   4.675  13.562  0.00  0.00    +0.000 A 
ATOM      4  C   UNL     1      46.986   4.849  13.852  0.00  0.00    +0.000 A 
ATOM      5  C   UNL     1      47.658   5.960  13.359  0.00  0.00    +0.000 A 
ATOM      6  C   UNL     1      47.004   6.927  12.588  0.00  0.00    +0.000 A 
ATOM      7  C   UNL     1      45.623   6.771  12.383  0.00  0.00    +0.000 A 
BRANCH   6   8
ATOM      8  N   UNL     1      47.705   7.969  12.024  0.00  0.00    +0.000 N 
ATOM      9  C   UNL     1      49.013   7.756  11.405  0.00  0.00    +0.000 C 
ATOM     10  C   UNL     1      50.087   8.642  12.063  0.00  0.00    +0.000 C 
ATOM     11  N   UNL     1      49.717  10.074  12.115  0.00  0.00    +0.000 NA
ATOM     12  C   UNL     1      48.414  10.205  12.809  0.00  0.00    +0.000 C 
ATOM     13  C   UNL     1      47.277   9.364  12.175  0.00  0.00    +0.000 C 
ATOM     14  H   UNL     1      49.590  10.395  11.155  0.00  0.00    +0.000 HD
ENDBRANCH   6   8
ENDBRANCH   1   2
BRANCH   1  15
ATOM     15  C   UNL     1      43.468   5.243  11.025  0.00  0.00    +0.000 C 
BRANCH  15  16
ATOM     16  C   UNL     1      43.581   3.744  10.758  0.00  0.00    +0.000 C 
BRANCH  16  20
ATOM     17  C   UNL     1      46.415   2.768   7.638  0.00  0.00    +0.000 A 
ATOM     18  C   UNL     1      45.827   1.744   8.377  0.00  0.00    +0.000 A 
ATOM     19  C   UNL     1      44.933   2.051   9.412  0.00  0.00    +0.000 A 
ATOM     20  C   UNL     1      44.611   3.389   9.704  0.00  0.00    +0.000 A 
ATOM     21  C   UNL     1      45.246   4.406   8.984  0.00  0.00    +0.000 A 
ATOM     22  C   UNL     1      46.146   4.102   7.954  0.00  0.00    +0.000 A 
BRANCH  17  24
ATOM     23  N   UNL     1      47.150   3.156   5.355  0.00  0.00    +0.000 N 
ATOM     24  C   UNL     1      47.352   2.465   6.523  0.00  0.00    +0.000 C 
ATOM     25  O   UNL     1      48.265   1.676   6.649  0.00  0.00    +0.000 OA
ATOM     26  H   UNL     1      47.848   3.030   4.637  0.00  0.00    +0.000 HD
ATOM     27  H   UNL     1      46.572   3.979   5.312  0.00  0.00    +0.000 HD
ENDBRANCH  17  24
ENDBRANCH  16  20
ENDBRANCH  15  16
ENDBRANCH   1  15
TORSDOF 6
ENDMDL
MODEL 3
REMARK VINA RESULT:    -7.521      3.573      5.255
REMARK INTER + INTRA:         -10.965
REMARK INTER:                 -10.223
REMARK INTRA:                  -0.742
REMARK UNBOUND:                -0.806
REMARK  Name = 
REMARK  6 active torsions:
REMARK  status: ('A' for Active; 'I' for Inactive)
REMARK    1  A    between atoms: C_2  and  C_4
REMARK    2  A    between atoms: C_7  and  C_8
REMARK    3  A    between atoms: C_8  and  C_9
REMARK    4  A    between atoms: C_9  and  O_10
REMARK    5  A    between atoms: O_10  and  C_11
REMARK    6  A    between atoms: C_15  and  N_16
REMARK                            x       y       z     vdW  Elec       q    Type
REMARK                         _______ _______ _______ _____ _____    ______ ____
ROOT
ATOM      1  O   UNL     1      45.050   5.140  11.948  0.00  0.00    +0.000 OA
ENDROOT
BRANCH   1   2
ATOM      2  C   UNL     1      45.479   6.407  12.273  0.00  0.00    +0.000 A 
ATOM      3  C   UNL     1      46.588   6.695  13.066  0.00  0.00    +0.000 A 
ATOM      4  C   UNL     1      46.985   8.012  13.271  0.00  0.00    +0.000 A 
ATOM      5  C   UNL     1      46.302   9.043  12.639  0.00  0.00    +0.000 A 
ATOM      6  C   UNL     1      45.203   8.792  11.811  0.00  0.00    +0.000 A 
ATOM      7  C   UNL     1      44.770   7.461  11.690  0.00  0.00    +0.000 A 
BRANCH   6   8
ATOM      8  N   UNL     1      44.599   9.814  11.114  0.00  0.00    +0.000 N 
ATOM      9  C   UNL     1      45.268  11.100  10.923  0.00  0.00    +0.000 C 
ATOM     10  C   UNL     1      44.417  12.255  11.482  0.00  0.00    +0.000 C 
ATOM     11  N   UNL     1      43.028  12.263  10.971  0.00  0.00    +0.000 NA
ATOM     12  C   UNL     1      42.406  10.950  11.260  0.00  0.00    +0.000 C 
ATOM     13  C   UNL     1      43.195   9.742  10.693  0.00  0.00    +0.000 C 
ATOM     14  H   UNL     1      43.073  12.368   9.957  0.00  0.00    +0.000 HD
ENDBRANCH   6   8
ENDBRANCH   1   2
BRANCH   1  15
ATOM     15  C   UNL     1      43.875   5.109  11.130  0.00  0.00    +0.000 C 
BRANCH  15  16
ATOM     16  C   UNL     1      43.673   3.718  10.534  0.00  0.00    +0.000 C 
BRANCH  16  20
ATOM     17  C   UNL     1      46.595   2.716   7.505  0.00  0.00    +0.000 A 
ATOM     18  C   UNL     1      46.234   4.047   7.698  0.00  0.00    +0.000 A 
ATOM     19  C   UNL     1      45.264   4.379   8.653  0.00  0.00    +0.000 A 
ATOM     20  C   UNL     1      44.658   3.377   9.434  0.00  0.00    +0.000 A 
ATOM     21  C   UNL     1      44.998   2.042   9.196  0.00  0.00    +0.000 A 
ATOM     22  C   UNL     1      45.962   1.707   8.236  0.00  0.00    +0.000 A 
BRANCH  17  24
ATOM     23  N   UNL     1      47.674   3.091   5.360  0.00  0.00    +0.000 N 
ATOM     24  C   UNL     1      47.636   2.342   6.510  0.00  0.00    +0.000 C 
ATOM     25  O   UNL     1      48.429   1.449   6.716  0.00  0.00    +0.000 OA
ATOM     26  H   UNL     1      48.444   2.908   4.735  0.00  0.00    +0.000 HD
ATOM     27  H   UNL     1      47.202   3.978   5.281  0.00  0.00    +0.000 HD
ENDBRANCH  17  24
ENDBRANCH  16  20
ENDBRANCH  15  16
ENDBRANCH   1  15
TORSDOF 6
ENDMDL
MODEL 4
REMARK VINA RESULT:    -7.455      2.735      3.568
REMARK INTER + INTRA:         -10.876
REMARK INTER:                 -10.037
REMARK INTRA:                  -0.839
REMARK UNBOUND:                -0.806
REMARK  Name = 
REMARK  6 active torsions:
REMARK  status: ('A' for Active; 'I' for Inactive)
REMARK    1  A    between atoms: C_2  and  C_4
REMARK    2  A    between atoms: C_7  and  C_8
REMARK    3  A    between atoms: C_8  and  C_9
REMARK    4  A    between atoms: C_9  and  O_10
REMARK    5  A    between atoms: O_10  and  C_11
REMARK    6  A    between atoms: C_15  and  N_16
REMARK                            x       y       z     vdW  Elec       q    Type
REMARK                         _______ _______ _______ _____ _____    ______ ____
ROOT
ATOM      1  O   UNL     1      44.786   5.472  12.057  0.00  0.00    +0.000 OA
ENDROOT
BRANCH   1   2
ATOM      2  C   UNL     1      45.542   6.622  12.041  0.00  0.00    +0.000 A 
ATOM      3  C   UNL     1      45.026   7.916  11.988  0.00  0.00    +0.000 A 
ATOM      4  C   UNL     1      45.873   9.017  12.055  0.00  0.00    +0.000 A 
ATOM      5  C   UNL     1      47.238   8.824  12.227  0.00  0.00    +0.000 A 
ATOM      6  C   UNL     1      47.791   7.542  12.316  0.00  0.00    +0.000 A 
ATOM      7  C   UNL     1      46.924   6.448  12.158  0.00  0.00    +0.000 A 
BRANCH   6   8
ATOM      8  N   UNL     1      49.129   7.370  12.586  0.00  0.00    +0.000 N 
ATOM      9  C   UNL     1      49.610   7.196  13.956  0.00  0.00    +0.000 C 
ATOM     10  C   UNL     1      50.651   8.272  14.317  0.00  0.00    +0.000 C 
ATOM     11  N   UNL     1      51.759   8.369  13.341  0.00  0.00    +0.000 NA
ATOM     12  C   UNL     1      51.189   8.606  11.994  0.00  0.00    +0.000 C 
ATOM     13  C   UNL     1      50.157   7.537  11.552  0.00  0.00    +0.000 C 
ATOM     14  H   UNL     1      52.234   7.467  13.322  0.00  0.00    +0.000 HD
ENDBRANCH   6   8
ENDBRANCH   1   2
BRANCH   1  15
ATOM     15  C   UNL     1      43.811   5.396  11.011  0.00  0.00    +0.000 C 
BRANCH  15  16
ATOM     16  C   UNL     1      43.640   3.953  10.541  0.00  0.00    +0.000 C 
BRANCH  16  20
ATOM     17  C   UNL     1      46.507   2.727   7.541  0.00  0.00    +0.000 A 
ATOM     18  C   UNL     1      45.905   1.766   8.350  0.00  0.00    +0.000 A 
ATOM     19  C   UNL     1      45.000   2.156   9.346  0.00  0.00    +0.000 A 
ATOM     20  C   UNL     1      44.681   3.514   9.530  0.00  0.00    +0.000 A 
ATOM     21  C   UNL     1      45.329   4.469   8.742  0.00  0.00    +0.000 A 
ATOM     22  C   UNL     1      46.240   4.083   7.750  0.00  0.00    +0.000 A 
BRANCH  17  24
ATOM     23  N   UNL     1      47.456   3.121   5.340  0.00  0.00    +0.000 N 
ATOM     24  C   UNL     1      47.456   2.335   6.464  0.00  0.00    +0.000 C 
ATOM     25  O   UNL     1      48.211   1.395   6.587  0.00  0.00    +0.000 OA
ATOM     26  H   UNL     1      48.172   2.920   4.657  0.00  0.00    +0.000 HD
ATOM     27  H   UNL     1      47.029   4.033   5.322  0.00  0.00    +0.000 HD
ENDBRANCH  17  24
ENDBRANCH  16  20
ENDBRANCH  15  16
ENDBRANCH   1  15
TORSDOF 6
ENDMDL
MODEL 5
REMARK VINA RESULT:    -7.037      3.908      7.963
REMARK INTER + INTRA:         -10.311
REMARK INTER:                  -9.645
REMARK INTRA:                  -0.666
REMARK UNBOUND:                -0.806
REMARK  Name = 
REMARK  6 active torsions:
REMARK  status: ('A' for Active; 'I' for Inactive)
REMARK    1  A    between atoms: C_2  and  C_4
REMARK    2  A    between atoms: C_7  and  C_8
REMARK    3  A    between atoms: C_8  and  C_9
REMARK    4  A    between atoms: C_9  and  O_10
REMARK    5  A    between atoms: O_10  and  C_11
REMARK    6  A    between atoms: C_15  and  N_16
REMARK                            x       y       z     vdW  Elec       q    Type
REMARK                         _______ _______ _______ _____ _____    ______ ____
ROOT
ATOM      1  O   UNL     1      48.140   5.541  15.084  0.00  0.00    +0.000 OA
ENDROOT
BRANCH   1   2
ATOM      2  C   UNL     1      47.642   5.968  13.874  0.00  0.00    +0.000 A 
ATOM      3  C   UNL     1      48.286   6.856  13.015  0.00  0.00    +0.000 A 
ATOM      4  C   UNL     1      47.734   7.164  11.776  0.00  0.00    +0.000 A 
ATOM      5  C   UNL     1      46.559   6.544  11.373  0.00  0.00    +0.000 A 
ATOM      6  C   UNL     1      45.899   5.624  12.194  0.00  0.00    +0.000 A 
ATOM      7  C   UNL     1      46.431   5.396  13.474  0.00  0.00    +0.000 A 
BRANCH   6   8
ATOM      8  N   UNL     1      44.791   4.944  11.741  0.00  0.00    +0.000 N 
ATOM      9  C   UNL     1      43.812   4.383  12.672  0.00  0.00    +0.000 C 
ATOM     10  C   UNL     1      43.652   2.866  12.459  0.00  0.00    +0.000 C 
ATOM     11  N   UNL     1      43.367   2.497  11.055  0.00  0.00    +0.000 NA
ATOM     12  C   UNL     1      44.435   3.050  10.190  0.00  0.00    +0.000 C 
ATOM     13  C   UNL     1      44.626   4.582  10.330  0.00  0.00    +0.000 C 
ATOM     14  H   UNL     1      42.490   2.946  10.790  0.00  0.00    +0.000 HD
ENDBRANCH   6   8
ENDBRANCH   1   2
BRANCH   1  15
ATOM     15  C   UNL     1      47.330   4.557  15.738  0.00  0.00    +0.000 C 
BRANCH  15  16
ATOM     16  C   UNL     1      47.803   4.342  17.174  0.00  0.00    +0.000 C 
BRANCH  16  20
ATOM     17  C   UNL     1      51.553   2.222  17.587  0.00  0.00    +0.000 A 
ATOM     18  C   UNL     1      51.472   3.557  17.973  0.00  0.00    +0.000 A 
ATOM     19  C   UNL     1      50.272   4.262  17.813  0.00  0.00    +0.000 A 
ATOM     20  C   UNL     1      49.137   3.628  17.275  0.00  0.00    +0.000 A 
ATOM     21  C   UNL     1      49.248   2.301  16.850  0.00  0.00    +0.000 A 
ATOM     22  C   UNL     1      50.449   1.596  17.002  0.00  0.00    +0.000 A 
BRANCH  17  24
ATOM     23  N   UNL     1      52.668   0.130  18.117  0.00  0.00    +0.000 N 
ATOM     24  C   UNL     1      52.811   1.449  17.765  0.00  0.00    +0.000 C 
ATOM     25  O   UNL     1      53.901   1.946  17.578  0.00  0.00    +0.000 OA
ATOM     26  H   UNL     1      53.515  -0.420  18.134  0.00  0.00    +0.000 HD
ATOM     27  H   UNL     1      51.791  -0.357  18.032  0.00  0.00    +0.000 HD
ENDBRANCH  17  24
ENDBRANCH  16  20
ENDBRANCH  15  16
ENDBRANCH   1  15
TORSDOF 6
ENDMDL
MODEL 6
REMARK VINA RESULT:    -6.903      2.102      7.722
REMARK INTER + INTRA:         -10.130
REMARK INTER:                  -9.062
REMARK INTRA:                  -1.068
REMARK UNBOUND:                -0.806
REMARK  Name = 
REMARK  6 active torsions:
REMARK  status: ('A' for Active; 'I' for Inactive)
REMARK    1  A    between atoms: C_2  and  C_4
REMARK    2  A    between atoms: C_7  and  C_8
REMARK    3  A    between atoms: C_8  and  C_9
REMARK    4  A    between atoms: C_9  and  O_10
REMARK    5  A    between atoms: O_10  and  C_11
REMARK    6  A    between atoms: C_15  and  N_16
REMARK                            x       y       z     vdW  Elec       q    Type
REMARK                         _______ _______ _______ _____ _____    ______ ____
ROOT
ATOM      1  O   UNL     1      45.530   6.862  10.971  0.00  0.00    +0.000 OA
ENDROOT
BRANCH   1   2
ATOM      2  C   UNL     1      45.028   5.587  10.839  0.00  0.00    +0.000 A 
ATOM      3  C   UNL     1      44.013   5.044  11.625  0.00  0.00    +0.000 A 
ATOM      4  C   UNL     1      43.521   3.770  11.361  0.00  0.00    +0.000 A 
ATOM      5  C   UNL     1      44.011   3.055  10.275  0.00  0.00    +0.000 A 
ATOM      6  C   UNL     1      45.008   3.579   9.445  0.00  0.00    +0.000 A 
ATOM      7  C   UNL     1      45.548   4.830   9.785  0.00  0.00    +0.000 A 
BRANCH   6   8
ATOM      8  N   UNL     1      45.412   2.901   8.317  0.00  0.00    +0.000 N 
ATOM      9  C   UNL     1      45.338   1.442   8.242  0.00  0.00    +0.000 C 
ATOM     10  C   UNL     1      46.721   0.832   7.947  0.00  0.00    +0.000 C 
ATOM     11  N   UNL     1      47.383   1.423   6.762  0.00  0.00    +0.000 NA
ATOM     12  C   UNL     1      47.472   2.890   6.948  0.00  0.00    +0.000 C 
ATOM     13  C   UNL     1      46.107   3.574   7.214  0.00  0.00    +0.000 C 
ATOM     14  H   UNL     1      46.784   1.248   5.955  0.00  0.00    +0.000 HD
ENDBRANCH   6   8
ENDBRANCH   1   2
BRANCH   1  15
ATOM     15  C   UNL     1      45.872   7.223  12.313  0.00  0.00    +0.000 C 
BRANCH  15  16
ATOM     16  C   UNL     1      47.306   6.807  12.632  0.00  0.00    +0.000 C 
BRANCH  16  20
ATOM     17  C   UNL     1      47.773   4.026  15.914  0.00  0.00    +0.000 A 
ATOM     18  C   UNL     1      47.092   3.627  14.767  0.00  0.00    +0.000 A 
ATOM     19  C   UNL     1      46.906   4.530  13.712  0.00  0.00    +0.000 A 
ATOM     20  C   UNL     1      47.416   5.839  13.794  0.00  0.00    +0.000 A 
ATOM     21  C   UNL     1      48.056   6.238  14.971  0.00  0.00    +0.000 A 
ATOM     22  C   UNL     1      48.237   5.339  16.031  0.00  0.00    +0.000 A 
BRANCH  17  24
ATOM     23  N   UNL     1      46.894   2.745  17.782  0.00  0.00    +0.000 N 
ATOM     24  C   UNL     1      47.998   3.078  17.039  0.00  0.00    +0.000 C 
ATOM     25  O   UNL     1      49.089   2.601  17.265  0.00  0.00    +0.000 OA
ATOM     26  H   UNL     1      47.026   2.022  18.474  0.00  0.00    +0.000 HD
ATOM     27  H   UNL     1      45.956   2.926  17.462  0.00  0.00    +0.000 HD
ENDBRANCH  17  24
ENDBRANCH  16  20
ENDBRANCH  15  16
ENDBRANCH   1  15
TORSDOF 6
ENDMDL
MODEL 7
REMARK VINA RESULT:    -6.618      3.834      8.513
REMARK INTER + INTRA:          -9.745
REMARK INTER:                  -9.187
REMARK INTRA:                  -0.558
REMARK UNBOUND:                -0.806
REMARK  Name = 
REMARK  6 active torsions:
REMARK  status: ('A' for Active; 'I' for Inactive)
REMARK    1  A    between atoms: C_2  and  C_4
REMARK    2  A    between atoms: C_7  and  C_8
REMARK    3  A    between atoms: C_8  and  C_9
REMARK    4  A    between atoms: C_9  and  O_10
REMARK    5  A    between atoms: O_10  and  C_11
REMARK    6  A    between atoms: C_15  and  N_16
REMARK                            x       y       z     vdW  Elec       q    Type
REMARK                         _______ _______ _______ _____ _____    ______ ____
ROOT
ATOM      1  O   UNL     1      47.300   3.637  14.653  0.00  0.00    +0.000 OA
ENDROOT
BRANCH   1   2
ATOM      2  C   UNL     1      46.906   4.606  13.759  0.00  0.00    +0.000 A 
ATOM      3  C   UNL     1      47.381   5.917  13.742  0.00  0.00    +0.000 A 
ATOM      4  C   UNL     1      46.978   6.800  12.746  0.00  0.00    +0.000 A 
ATOM      5  C   UNL     1      46.136   6.358  11.733  0.00  0.00    +0.000 A 
ATOM      6  C   UNL     1      45.663   5.042  11.699  0.00  0.00    +0.000 A 
ATOM      7  C   UNL     1      46.016   4.196  12.763  0.00  0.00    +0.000 A 
BRANCH   6   8
ATOM      8  N   UNL     1      44.911   4.593  10.637  0.00  0.00    +0.000 N 
ATOM      9  C   UNL     1      43.985   3.471  10.785  0.00  0.00    +0.000 C 
ATOM     10  C   UNL     1      44.322   2.340   9.795  0.00  0.00    +0.000 C 
ATOM     11  N   UNL     1      44.429   2.799   8.393  0.00  0.00    +0.000 NA
ATOM     12  C   UNL     1      45.429   3.890   8.322  0.00  0.00    +0.000 C 
ATOM     13  C   UNL     1      45.130   5.079   9.270  0.00  0.00    +0.000 C 
ATOM     14  H   UNL     1      43.525   3.190   8.126  0.00  0.00    +0.000 HD
ENDBRANCH   6   8
ENDBRANCH   1   2
BRANCH   1  15
ATOM     15  C   UNL     1      47.276   4.057  16.022  0.00  0.00    +0.000 C 
BRANCH  15  16
ATOM     16  C   UNL     1      47.755   2.932  16.936  0.00  0.00    +0.000 C 
BRANCH  16  20
ATOM     17  C   UNL     1      51.974   2.968  17.898  0.00  0.00    +0.000 A 
ATOM     18  C   UNL     1      51.215   4.119  18.091  0.00  0.00    +0.000 A 
ATOM     19  C   UNL     1      49.855   4.128  17.752  0.00  0.00    +0.000 A 
ATOM     20  C   UNL     1      49.242   2.975  17.228  0.00  0.00    +0.000 A 
ATOM     21  C   UNL     1      50.028   1.842  16.997  0.00  0.00    +0.000 A 
ATOM     22  C   UNL     1      51.389   1.833  17.329  0.00  0.00    +0.000 A 
BRANCH  17  24
ATOM     23  N   UNL     1      53.720   2.305  19.452  0.00  0.00    +0.000 N 
ATOM     24  C   UNL     1      53.414   2.930  18.269  0.00  0.00    +0.000 C 
ATOM     25  O   UNL     1      54.273   3.394  17.550  0.00  0.00    +0.000 OA
ATOM     26  H   UNL     1      54.702   2.186  19.650  0.00  0.00    +0.000 HD
ATOM     27  H   UNL     1      53.066   1.705  19.927  0.00  0.00    +0.000 HD
ENDBRANCH  17  24
ENDBRANCH  16  20
ENDBRANCH  15  16
ENDBRANCH   1  15
TORSDOF 6
ENDMDL
MODEL 8
REMARK VINA RESULT:    -6.397      3.318      7.289
REMARK INTER + INTRA:          -9.446
REMARK INTER:                  -8.408
REMARK INTRA:                  -1.038
REMARK UNBOUND:                -0.806
REMARK  Name = 
REMARK  6 active torsions:
REMARK  status: ('A' for Active; 'I' for Inactive)
REMARK    1  A    between atoms: C_2  and  C_4
REMARK    2  A    between atoms: C_7  and  C_8
REMARK    3  A    between atoms: C_8  and  C_9
REMARK    4  A    between atoms: C_9  and  O_10
REMARK    5  A    between atoms: O_10  and  C_11
REMARK    6  A    between atoms: C_15  and  N_16
REMARK                            x       y       z     vdW  Elec       q    Type
REMARK                         _______ _______ _______ _____ _____    ______ ____
ROOT
ATOM      1  O   UNL     1      45.541   3.337  13.409  0.00  0.00    +0.000 OA
ENDROOT
BRANCH   1   2
ATOM      2  C   UNL     1      44.885   3.812  12.296  0.00  0.00    +0.000 A 
ATOM      3  C   UNL     1      44.081   4.950  12.269  0.00  0.00    +0.000 A 
ATOM      4  C   UNL     1      43.524   5.392  11.074  0.00  0.00    +0.000 A 
ATOM      5  C   UNL     1      43.813   4.723   9.891  0.00  0.00    +0.000 A 
ATOM      6  C   UNL     1      44.641   3.596   9.873  0.00  0.00    +0.000 A 
ATOM      7  C   UNL     1      45.120   3.120  11.105  0.00  0.00    +0.000 A 
BRANCH   6   8
ATOM      8  N   UNL     1      44.998   3.004   8.682  0.00  0.00    +0.000 N 
ATOM      9  C   UNL     1      45.132   1.553   8.567  0.00  0.00    +0.000 C 
ATOM     10  C   UNL     1      46.542   1.163   8.087  0.00  0.00    +0.000 C 
ATOM     11  N   UNL     1      46.957   1.865   6.852  0.00  0.00    +0.000 NA
ATOM     12  C   UNL     1      46.851   3.326   7.075  0.00  0.00    +0.000 C 
ATOM     13  C   UNL     1      45.443   3.791   7.527  0.00  0.00    +0.000 C 
ATOM     14  H   UNL     1      46.295   1.615   6.117  0.00  0.00    +0.000 HD
ENDBRANCH   6   8
ENDBRANCH   1   2
BRANCH   1  15
ATOM     15  C   UNL     1      46.894   3.789  13.531  0.00  0.00    +0.000 C 
BRANCH  15  16
ATOM     16  C   UNL     1      46.954   5.100  14.313  0.00  0.00    +0.000 C 
BRANCH  16  20
ATOM     17  C   UNL     1      49.280   8.098  12.234  0.00  0.00    +0.000 A 
ATOM     18  C   UNL     1      49.609   7.759  13.544  0.00  0.00    +0.000 A 
ATOM     19  C   UNL     1      48.842   6.813  14.238  0.00  0.00    +0.000 A 
ATOM     20  C   UNL     1      47.745   6.189  13.616  0.00  0.00    +0.000 A 
ATOM     21  C   UNL     1      47.400   6.575  12.317  0.00  0.00    +0.000 A 
ATOM     22  C   UNL     1      48.161   7.525  11.624  0.00  0.00    +0.000 A 
BRANCH  17  24
ATOM     23  N   UNL     1      49.539  10.330  11.311  0.00  0.00    +0.000 N 
ATOM     24  C   UNL     1      50.092   9.085  11.473  0.00  0.00    +0.000 C 
ATOM     25  O   UNL     1      51.195   8.816  11.048  0.00  0.00    +0.000 OA
ATOM     26  H   UNL     1      50.133  11.029  10.889  0.00  0.00    +0.000 HD
ATOM     27  H   UNL     1      48.756  10.646  11.860  0.00  0.00    +0.000 HD
ENDBRANCH  17  24
ENDBRANCH  16  20
ENDBRANCH  15  16
ENDBRANCH   1  15
TORSDOF 6
ENDMDL
MODEL 9
REMARK VINA RESULT:    -6.303      3.131      4.943
REMARK INTER + INTRA:          -9.320
REMARK INTER:                  -8.221
REMARK INTRA:                  -1.098
REMARK UNBOUND:                -0.806
REMARK  Name = 
REMARK  6 active torsions:
REMARK  status: ('A' for Active; 'I' for Inactive)
REMARK    1  A    between atoms: C_2  and  C_4
REMARK    2  A    between atoms: C_7  and  C_8
REMARK    3  A    between atoms: C_8  and  C_9
REMARK    4  A    between atoms: C_9  and  O_10
REMARK    5  A    between atoms: O_10  and  C_11
REMARK    6  A    between atoms: C_15  and  N_16
REMARK                            x       y       z     vdW  Elec       q    Type
REMARK                         _______ _______ _______ _____ _____    ______ ____
ROOT
ATOM      1  O   UNL     1      49.348   8.314  14.296  0.00  0.00    +0.000 OA
ENDROOT
BRANCH   1   2
ATOM      2  C   UNL     1      49.052   7.947  15.589  0.00  0.00    +0.000 A 
ATOM      3  C   UNL     1      48.629   8.820  16.590  0.00  0.00    +0.000 A 
ATOM      4  C   UNL     1      48.280   8.337  17.846  0.00  0.00    +0.000 A 
ATOM      5  C   UNL     1      48.304   6.969  18.089  0.00  0.00    +0.000 A 
ATOM      6  C   UNL     1      48.693   6.058  17.101  0.00  0.00    +0.000 A 
ATOM      7  C   UNL     1      49.124   6.579  15.869  0.00  0.00    +0.000 A 
BRANCH   6   8
ATOM      8  N   UNL     1      48.618   4.703  17.325  0.00  0.00    +0.000 N 
ATOM      9  C   UNL     1      49.694   3.986  18.008  0.00  0.00    +0.000 C 
ATOM     10  C   UNL     1      50.245   2.847  17.129  0.00  0.00    +0.000 C 
ATOM     11  N   UNL     1      49.195   1.935  16.623  0.00  0.00    +0.000 NA
ATOM     12  C   UNL     1      48.182   2.732  15.894  0.00  0.00    +0.000 C 
ATOM     13  C   UNL     1      47.559   3.876  16.734  0.00  0.00    +0.000 C 
ATOM     14  H   UNL     1      48.736   1.514  17.431  0.00  0.00    +0.000 HD
ENDBRANCH   6   8
ENDBRANCH   1   2
BRANCH   1  15
ATOM     15  C   UNL     1      49.110   7.288  13.326  0.00  0.00    +0.000 C 
BRANCH  15  16
ATOM     16  C   UNL     1      47.924   7.654  12.436  0.00  0.00    +0.000 C 
BRANCH  16  20
ATOM     17  C   UNL     1      44.924   4.569  11.983  0.00  0.00    +0.000 A 
ATOM     18  C   UNL     1      45.568   4.727  13.208  0.00  0.00    +0.000 A 
ATOM     19  C   UNL     1      46.565   5.701  13.355  0.00  0.00    +0.000 A 
ATOM     20  C   UNL     1      46.914   6.535  12.277  0.00  0.00    +0.000 A 
ATOM     21  C   UNL     1      46.291   6.333  11.042  0.00  0.00    +0.000 A 
ATOM     22  C   UNL     1      45.299   5.355  10.890  0.00  0.00    +0.000 A 
BRANCH  17  24
ATOM     23  N   UNL     1      43.924   2.447  12.616  0.00  0.00    +0.000 N 
ATOM     24  C   UNL     1      43.850   3.555  11.809  0.00  0.00    +0.000 C 
ATOM     25  O   UNL     1      42.941   3.712  11.022  0.00  0.00    +0.000 OA
ATOM     26  H   UNL     1      43.140   1.813  12.573  0.00  0.00    +0.000 HD
ATOM     27  H   UNL     1      44.512   2.416  13.432  0.00  0.00    +0.000 HD
ENDBRANCH  17  24
ENDBRANCH  16  20
ENDBRANCH  15  16
ENDBRANCH   1  15
TORSDOF 6
ENDMDL
