MODEL 1
REMARK VINA RESULT:    -7.082      0.000      0.000
REMARK INTER + INTRA:         -11.318
REMARK INTER:                  -9.980
REMARK INTRA:                  -1.338
REMARK UNBOUND:                -1.338
REMARK  Name = 
REMARK  8 active torsions:
REMARK  status: ('A' for Active; 'I' for Inactive)
REMARK    1  A    between atoms: C_1  and  O_2
REMARK    2  A    between atoms: O_2  and  C_3
REMARK    3  A    between atoms: C_8  and  C_9
REMARK    4  A    between atoms: N_11  and  C_12
REMARK    5  A    between atoms: C_12  and  C_13
REMARK    6  A    between atoms: C_16  and  C_17
REMARK    7  A    between atoms: C_17  and  N_18
REMARK    8  A    between atoms: C_19  and  C_21
REMARK                            x       y       z     vdW  Elec       q    Type
REMARK                         _______ _______ _______ _____ _____    ______ ____
ROOT
ATOM      1  C   UNL     1      50.355   7.373  15.396  0.00  0.00    +0.000 A 
ATOM      2  C   UNL     1      49.085   6.784  15.446  0.00  0.00    +0.000 A 
ATOM      3  C   UNL     1      48.195   6.913  14.372  0.00  0.00    +0.000 A 
ATOM      4  C   UNL     1      48.566   7.618  13.219  0.00  0.00    +0.000 A 
ATOM      5  C   UNL     1      49.831   8.220  13.177  0.00  0.00    +0.000 A 
ATOM      6  C   UNL     1      50.720   8.090  14.249  0.00  0.00    +0.000 A 
ENDROOT
BRANCH   1   7
ATOM      7  C   UNL     1      51.326   7.209  16.536  0.00  0.00    +0.000 C 
BRANCH   7  10
ATOM      8  C   UNL     1      51.516   5.111  17.814  0.00  0.00    +0.000 C 
ATOM      9  O   UNL     1      50.975   5.608  18.797  0.00  0.00    +0.000 OA
ATOM     10  N   UNL     1      51.753   5.838  16.671  0.00  0.00    +0.000 N 
ATOM     11  H   UNL     1      52.203   5.380  15.886  0.00  0.00    +0.000 HD
BRANCH   8  17
ATOM     12  C   UNL     1      51.132   2.610  17.279  0.00  0.00    +0.000 A 
ATOM     13  C   UNL     1      51.571   1.286  17.436  0.00  0.00    +0.000 A 
ATOM     14  C   UNL     1      52.778   0.999  18.081  0.00  0.00    +0.000 A 
ATOM     15  C   UNL     1      53.569   2.032  18.566  0.00  0.00    +0.000 A 
ATOM     16  C   UNL     1      53.135   3.352  18.439  0.00  0.00    +0.000 A 
ATOM     17  C   UNL     1      51.910   3.659  17.815  0.00  0.00    +0.000 A 
BRANCH  12  19
ATOM     18  C   UNL     1      48.740   2.495  17.183  0.00  0.00    +0.000 C 
ATOM     19  O   UNL     1      49.972   2.940  16.625  0.00  0.00    +0.000 OA
ENDBRANCH  12  19
ENDBRANCH   8  17
ENDBRANCH   7  10
ENDBRANCH   1   7
BRANCH   4  20
ATOM     20  C   UNL     1      47.621   7.754  12.052  0.00  0.00    +0.000 C 
BRANCH  20  21
ATOM     21  N   UNL     1      46.923   6.521  11.791  0.00  0.00    +0.000 N 
ATOM     22  C   UNL     1      45.559   6.434  11.924  0.00  0.00    +0.000 C 
ATOM     23  O   UNL     1      44.871   7.406  12.225  0.00  0.00    +0.000 OA
ATOM     24  H   UNL     1      47.477   5.672  11.780  0.00  0.00    +0.000 HD
BRANCH  22  25
ATOM     25  C   UNL     1      44.953   5.129  11.628  0.00  0.00    +0.000 A 
ATOM     26  C   UNL     1      44.250   4.454  12.618  0.00  0.00    +0.000 A 
ATOM     27  S   UNL     1      43.568   2.982  12.088  0.00  0.00    +0.000 S 
ATOM     28  C   UNL     1      44.235   3.167  10.534  0.00  0.00    +0.000 A 
ATOM     29  N   UNL     1      44.052   2.220   9.575  0.00  0.00    +0.000 NA
ATOM     30  C   UNL     1      44.638   2.474   8.454  0.00  0.00    +0.000 A 
ATOM     31  N   UNL     1      45.387   3.595   8.203  0.00  0.00    +0.000 N 
ATOM     32  C   UNL     1      45.575   4.591   9.131  0.00  0.00    +0.000 A 
ATOM     33  O   UNL     1      46.216   5.603   8.857  0.00  0.00    +0.000 OA
ATOM     34  C   UNL     1      44.948   4.347  10.413  0.00  0.00    +0.000 A 
ATOM     35  H   UNL     1      45.816   3.742   7.300  0.00  0.00    +0.000 HD
ENDBRANCH  22  25
ENDBRANCH  20  21
ENDBRANCH   4  20
TORSDOF 7
ENDMDL
MODEL 2
REMARK VINA RESULT:    -6.963      0.782      1.680
REMARK INTER + INTRA:         -11.150
REMARK INTER:                  -9.825
REMARK INTRA:                  -1.325
REMARK UNBOUND:                -1.338
REMARK  Name = 
REMARK  8 active torsions:
REMARK  status: ('A' for Active; 'I' for Inactive)
REMARK    1  A    between atoms: C_1  and  O_2
REMARK    2  A    between atoms: O_2  and  C_3
REMARK    3  A    between atoms: C_8  and  C_9
REMARK    4  A    between atoms: N_11  and  C_12
REMARK    5  A    between atoms: C_12  and  C_13
REMARK    6  A    between atoms: C_16  and  C_17
REMARK    7  A    between atoms: C_17  and  N_18
REMARK    8  A    between atoms: C_19  and  C_21
REMARK                            x       y       z     vdW  Elec       q    Type
REMARK                         _______ _______ _______ _____ _____    ______ ____
ROOT
ATOM      1  C   UNL     1      50.455   7.559  15.245  0.00  0.00    +0.000 A 
ATOM      2  C   UNL     1      49.217   6.904  15.287  0.00  0.00    +0.000 A 
ATOM      3  C   UNL     1      48.329   6.984  14.208  0.00  0.00    +0.000 A 
ATOM      4  C   UNL     1      48.670   7.706  13.056  0.00  0.00    +0.000 A 
ATOM      5  C   UNL     1      49.902   8.373  13.022  0.00  0.00    +0.000 A 
ATOM      6  C   UNL     1      50.789   8.292  14.099  0.00  0.00    +0.000 A 
ENDROOT
BRANCH   1   7
ATOM      7  C   UNL     1      51.425   7.448  16.392  0.00  0.00    +0.000 C 
BRANCH   7  10
ATOM      8  C   UNL     1      51.296   5.326  17.639  0.00  0.00    +0.000 C 
ATOM      9  O   UNL     1      50.500   5.798  18.447  0.00  0.00    +0.000 OA
ATOM     10  N   UNL     1      51.821   6.079  16.616  0.00  0.00    +0.000 N 
ATOM     11  H   UNL     1      52.475   5.641  15.976  0.00  0.00    +0.000 HD
BRANCH   8  17
ATOM     12  C   UNL     1      52.987   3.418  18.063  0.00  0.00    +0.000 A 
ATOM     13  C   UNL     1      53.255   2.040  18.008  0.00  0.00    +0.000 A 
ATOM     14  C   UNL     1      52.257   1.126  17.658  0.00  0.00    +0.000 A 
ATOM     15  C   UNL     1      50.975   1.574  17.370  0.00  0.00    +0.000 A 
ATOM     16  C   UNL     1      50.698   2.941  17.399  0.00  0.00    +0.000 A 
ATOM     17  C   UNL     1      51.697   3.879  17.724  0.00  0.00    +0.000 A 
BRANCH  12  19
ATOM     18  C   UNL     1      54.968   4.648  17.513  0.00  0.00    +0.000 C 
ATOM     19  O   UNL     1      53.926   4.347  18.434  0.00  0.00    +0.000 OA
ENDBRANCH  12  19
ENDBRANCH   8  17
ENDBRANCH   7  10
ENDBRANCH   1   7
BRANCH   4  20
ATOM     20  C   UNL     1      47.727   7.791  11.882  0.00  0.00    +0.000 C 
BRANCH  20  21
ATOM     21  N   UNL     1      47.002   6.560  11.697  0.00  0.00    +0.000 N 
ATOM     22  C   UNL     1      45.632   6.522  11.783  0.00  0.00    +0.000 C 
ATOM     23  O   UNL     1      44.964   7.534  11.974  0.00  0.00    +0.000 OA
ATOM     24  H   UNL     1      47.530   5.698  11.780  0.00  0.00    +0.000 HD
BRANCH  22  25
ATOM     25  C   UNL     1      44.998   5.213  11.573  0.00  0.00    +0.000 A 
ATOM     26  C   UNL     1      44.302   4.609  12.612  0.00  0.00    +0.000 A 
ATOM     27  S   UNL     1      43.585   3.123  12.181  0.00  0.00    +0.000 S 
ATOM     28  C   UNL     1      44.224   3.206  10.607  0.00  0.00    +0.000 A 
ATOM     29  N   UNL     1      44.007   2.210   9.706  0.00  0.00    +0.000 NA
ATOM     30  C   UNL     1      44.575   2.389   8.562  0.00  0.00    +0.000 A 
ATOM     31  N   UNL     1      45.338   3.480   8.234  0.00  0.00    +0.000 N 
ATOM     32  C   UNL     1      45.562   4.524   9.100  0.00  0.00    +0.000 A 
ATOM     33  O   UNL     1      46.215   5.506   8.757  0.00  0.00    +0.000 OA
ATOM     34  C   UNL     1      44.955   4.364  10.405  0.00  0.00    +0.000 A 
ATOM     35  H   UNL     1      45.752   3.567   7.317  0.00  0.00    +0.000 HD
ENDBRANCH  22  25
ENDBRANCH  20  21
ENDBRANCH   4  20
TORSDOF 7
ENDMDL
MODEL 3
REMARK VINA RESULT:    -6.792      1.344      1.961
REMARK INTER + INTRA:         -10.910
REMARK INTER:                  -9.775
REMARK INTRA:                  -1.135
REMARK UNBOUND:                -1.338
REMARK  Name = 
REMARK  8 active torsions:
REMARK  status: ('A' for Active; 'I' for Inactive)
REMARK    1  A    between atoms: C_1  and  O_2
REMARK    2  A    between atoms: O_2  and  C_3
REMARK    3  A    between atoms: C_8  and  C_9
REMARK    4  A    between atoms: N_11  and  C_12
REMARK    5  A    between atoms: C_12  and  C_13
REMARK    6  A    between atoms: C_16  and  C_17
REMARK    7  A    between atoms: C_17  and  N_18
REMARK    8  A    between atoms: C_19  and  C_21
REMARK                            x       y       z     vdW  Elec       q    Type
REMARK                         _______ _______ _______ _____ _____    ______ ____
ROOT
ATOM      1  C   UNL     1      50.085   6.981  15.938  0.00  0.00    +0.000 A 
ATOM      2  C   UNL     1      48.766   6.601  15.656  0.00  0.00    +0.000 A 
ATOM      3  C   UNL     1      48.174   6.930  14.430  0.00  0.00    +0.000 A 
ATOM      4  C   UNL     1      48.898   7.627  13.454  0.00  0.00    +0.000 A 
ATOM      5  C   UNL     1      50.212   8.020  13.743  0.00  0.00    +0.000 A 
ATOM      6  C   UNL     1      50.803   7.691  14.966  0.00  0.00    +0.000 A 
ENDROOT
BRANCH   1   7
ATOM      7  C   UNL     1      50.735   6.601  17.243  0.00  0.00    +0.000 C 
BRANCH   7  10
ATOM      8  C   UNL     1      51.658   4.573  18.296  0.00  0.00    +0.000 C 
ATOM      9  O   UNL     1      51.487   5.026  19.424  0.00  0.00    +0.000 OA
ATOM     10  N   UNL     1      51.341   5.295  17.169  0.00  0.00    +0.000 N 
ATOM     11  H   UNL     1      51.503   4.874  16.260  0.00  0.00    +0.000 HD
BRANCH   8  17
ATOM     12  C   UNL     1      51.546   2.157  17.382  0.00  0.00    +0.000 A 
ATOM     13  C   UNL     1      52.107   0.869  17.371  0.00  0.00    +0.000 A 
ATOM     14  C   UNL     1      53.306   0.600  18.036  0.00  0.00    +0.000 A 
ATOM     15  C   UNL     1      53.969   1.616  18.712  0.00  0.00    +0.000 A 
ATOM     16  C   UNL     1      53.413   2.895  18.752  0.00  0.00    +0.000 A 
ATOM     17  C   UNL     1      52.192   3.179  18.109  0.00  0.00    +0.000 A 
BRANCH  12  19
ATOM     18  C   UNL     1      49.164   2.412  17.438  0.00  0.00    +0.000 C 
ATOM     19  O   UNL     1      50.389   2.474  16.716  0.00  0.00    +0.000 OA
ENDBRANCH  12  19
ENDBRANCH   8  17
ENDBRANCH   7  10
ENDBRANCH   1   7
BRANCH   4  20
ATOM     20  C   UNL     1      48.276   7.977  12.125  0.00  0.00    +0.000 C 
BRANCH  20  21
ATOM     21  N   UNL     1      47.567   6.856  11.563  0.00  0.00    +0.000 N 
ATOM     22  C   UNL     1      46.214   6.912  11.337  0.00  0.00    +0.000 C 
ATOM     23  O   UNL     1      45.558   7.925  11.560  0.00  0.00    +0.000 OA
ATOM     24  H   UNL     1      48.029   5.954  11.599  0.00  0.00    +0.000 HD
BRANCH  22  25
ATOM     25  C   UNL     1      45.596   5.711  10.756  0.00  0.00    +0.000 A 
ATOM     26  C   UNL     1      45.715   5.465   9.395  0.00  0.00    +0.000 A 
ATOM     27  S   UNL     1      44.986   4.004   8.899  0.00  0.00    +0.000 S 
ATOM     28  C   UNL     1      44.437   3.676  10.476  0.00  0.00    +0.000 A 
ATOM     29  N   UNL     1      43.702   2.565  10.747  0.00  0.00    +0.000 NA
ATOM     30  C   UNL     1      43.327   2.458  11.977  0.00  0.00    +0.000 A 
ATOM     31  N   UNL     1      43.627   3.362  12.963  0.00  0.00    +0.000 N 
ATOM     32  C   UNL     1      44.391   4.483  12.744  0.00  0.00    +0.000 A 
ATOM     33  O   UNL     1      44.677   5.248  13.661  0.00  0.00    +0.000 OA
ATOM     34  C   UNL     1      44.826   4.657  11.373  0.00  0.00    +0.000 A 
ATOM     35  H   UNL     1      43.311   3.219  13.912  0.00  0.00    +0.000 HD
ENDBRANCH  22  25
ENDBRANCH  20  21
ENDBRANCH   4  20
TORSDOF 7
ENDMDL
MODEL 4
REMARK VINA RESULT:    -6.786      2.880      8.962
REMARK INTER + INTRA:         -10.901
REMARK INTER:                  -9.813
REMARK INTRA:                  -1.088
REMARK UNBOUND:                -1.338
REMARK  Name = 
REMARK  8 active torsions:
REMARK  status: ('A' for Active; 'I' for Inactive)
REMARK    1  A    between atoms: C_1  and  O_2
REMARK    2  A    between atoms: O_2  and  C_3
REMARK    3  A    between atoms: C_8  and  C_9
REMARK    4  A    between atoms: N_11  and  C_12
REMARK    5  A    between atoms: C_12  and  C_13
REMARK    6  A    between atoms: C_16  and  C_17
REMARK    7  A    between atoms: C_17  and  N_18
REMARK    8  A    between atoms: C_19  and  C_21
REMARK                            x       y       z     vdW  Elec       q    Type
REMARK                         _______ _______ _______ _____ _____    ______ ____
ROOT
ATOM      1  C   UNL     1      47.925   7.800  13.327  0.00  0.00    +0.000 A 
ATOM      2  C   UNL     1      48.191   6.559  13.918  0.00  0.00    +0.000 A 
ATOM      3  C   UNL     1      48.600   6.477  15.255  0.00  0.00    +0.000 A 
ATOM      4  C   UNL     1      48.731   7.636  16.033  0.00  0.00    +0.000 A 
ATOM      5  C   UNL     1      48.479   8.878  15.435  0.00  0.00    +0.000 A 
ATOM      6  C   UNL     1      48.071   8.959  14.101  0.00  0.00    +0.000 A 
ENDROOT
BRANCH   1   7
ATOM      7  C   UNL     1      47.455   7.888  11.898  0.00  0.00    +0.000 C 
BRANCH   7  10
ATOM      8  C   UNL     1      45.590   6.448  11.179  0.00  0.00    +0.000 C 
ATOM      9  O   UNL     1      44.768   7.338  11.374  0.00  0.00    +0.000 OA
ATOM     10  N   UNL     1      46.929   6.627  11.439  0.00  0.00    +0.000 N 
ATOM     11  H   UNL     1      47.566   5.859  11.260  0.00  0.00    +0.000 HD
BRANCH   8  17
ATOM     12  C   UNL     1      44.576   4.075  11.348  0.00  0.00    +0.000 A 
ATOM     13  C   UNL     1      44.311   2.854  10.708  0.00  0.00    +0.000 A 
ATOM     14  C   UNL     1      44.581   2.680   9.348  0.00  0.00    +0.000 A 
ATOM     15  C   UNL     1      45.109   3.727   8.605  0.00  0.00    +0.000 A 
ATOM     16  C   UNL     1      45.400   4.939   9.230  0.00  0.00    +0.000 A 
ATOM     17  C   UNL     1      45.158   5.126  10.606  0.00  0.00    +0.000 A 
BRANCH  12  19
ATOM     18  C   UNL     1      42.994   4.770  13.009  0.00  0.00    +0.000 C 
ATOM     19  O   UNL     1      44.296   4.302  12.672  0.00  0.00    +0.000 OA
ENDBRANCH  12  19
ENDBRANCH   8  17
ENDBRANCH   7  10
ENDBRANCH   1   7
BRANCH   4  20
ATOM     20  C   UNL     1      49.159   7.560  17.477  0.00  0.00    +0.000 C 
BRANCH  20  21
ATOM     21  N   UNL     1      50.199   6.582  17.669  0.00  0.00    +0.000 N 
ATOM     22  C   UNL     1      50.150   5.687  18.709  0.00  0.00    +0.000 C 
ATOM     23  O   UNL     1      49.204   5.649  19.491  0.00  0.00    +0.000 OA
ATOM     24  H   UNL     1      51.082   6.750  17.199  0.00  0.00    +0.000 HD
BRANCH  22  25
ATOM     25  C   UNL     1      51.263   4.732  18.806  0.00  0.00    +0.000 A 
ATOM     26  C   UNL     1      52.397   5.067  19.534  0.00  0.00    +0.000 A 
ATOM     27  S   UNL     1      53.565   3.824  19.587  0.00  0.00    +0.000 S 
ATOM     28  C   UNL     1      52.621   2.816  18.593  0.00  0.00    +0.000 A 
ATOM     29  N   UNL     1      53.062   1.585  18.220  0.00  0.00    +0.000 NA
ATOM     30  C   UNL     1      52.259   0.942  17.442  0.00  0.00    +0.000 A 
ATOM     31  N   UNL     1      51.048   1.417  17.008  0.00  0.00    +0.000 N 
ATOM     32  C   UNL     1      50.548   2.641  17.382  0.00  0.00    +0.000 A 
ATOM     33  O   UNL     1      49.439   3.016  17.009  0.00  0.00    +0.000 OA
ATOM     34  C   UNL     1      51.420   3.410  18.246  0.00  0.00    +0.000 A 
ATOM     35  H   UNL     1      50.458   0.862  16.404  0.00  0.00    +0.000 HD
ENDBRANCH  22  25
ENDBRANCH  20  21
ENDBRANCH   4  20
TORSDOF 7
ENDMDL
MODEL 5
REMARK VINA RESULT:    -6.772      2.961      9.742
REMARK INTER + INTRA:         -10.882
REMARK INTER:                 -10.202
REMARK INTRA:                  -0.680
REMARK UNBOUND:                -1.338
REMARK  Name = 
REMARK  8 active torsions:
REMARK  status: ('A' for Active; 'I' for Inactive)
REMARK    1  A    between atoms: C_1  and  O_2
REMARK    2  A    between atoms: O_2  and  C_3
REMARK    3  A    between atoms: C_8  and  C_9
REMARK    4  A    between atoms: N_11  and  C_12
REMARK    5  A    between atoms: C_12  and  C_13
REMARK    6  A    between atoms: C_16  and  C_17
REMARK    7  A    between atoms: C_17  and  N_18
REMARK    8  A    between atoms: C_19  and  C_21
REMARK                            x       y       z     vdW  Elec       q    Type
REMARK                         _______ _______ _______ _____ _____    ______ ____
ROOT
ATOM      1  C   UNL     1      47.627   5.885  14.529  0.00  0.00    +0.000 A 
ATOM      2  C   UNL     1      48.486   6.365  15.526  0.00  0.00    +0.000 A 
ATOM      3  C   UNL     1      48.701   5.631  16.699  0.00  0.00    +0.000 A 
ATOM      4  C   UNL     1      48.077   4.391  16.888  0.00  0.00    +0.000 A 
ATOM      5  C   UNL     1      47.206   3.919  15.896  0.00  0.00    +0.000 A 
ATOM      6  C   UNL     1      46.992   4.652  14.725  0.00  0.00    +0.000 A 
ENDROOT
BRANCH   1   7
ATOM      7  C   UNL     1      47.419   6.658  13.252  0.00  0.00    +0.000 C 
BRANCH   7  10
ATOM      8  C   UNL     1      45.786   6.173  11.472  0.00  0.00    +0.000 C 
ATOM      9  O   UNL     1      45.160   7.205  11.704  0.00  0.00    +0.000 OA
ATOM     10  N   UNL     1      46.891   5.816  12.207  0.00  0.00    +0.000 N 
ATOM     11  H   UNL     1      47.372   4.953  11.976  0.00  0.00    +0.000 HD
BRANCH   8  17
ATOM     12  C   UNL     1      44.328   4.332  10.392  0.00  0.00    +0.000 A 
ATOM     13  C   UNL     1      44.116   3.484   9.292  0.00  0.00    +0.000 A 
ATOM     14  C   UNL     1      44.902   3.588   8.141  0.00  0.00    +0.000 A 
ATOM     15  C   UNL     1      45.903   4.546   8.067  0.00  0.00    +0.000 A 
ATOM     16  C   UNL     1      46.142   5.381   9.159  0.00  0.00    +0.000 A 
ATOM     17  C   UNL     1      45.377   5.275  10.338  0.00  0.00    +0.000 A 
BRANCH  12  19
ATOM     18  C   UNL     1      42.494   5.224  11.649  0.00  0.00    +0.000 C 
ATOM     19  O   UNL     1      43.560   4.289  11.528  0.00  0.00    +0.000 OA
ENDBRANCH  12  19
ENDBRANCH   8  17
ENDBRANCH   7  10
ENDBRANCH   1   7
BRANCH   4  20
ATOM     20  C   UNL     1      48.309   3.585  18.141  0.00  0.00    +0.000 C 
BRANCH  20  21
ATOM     21  N   UNL     1      49.700   3.247  18.301  0.00  0.00    +0.000 N 
ATOM     22  C   UNL     1      50.329   2.392  17.430  0.00  0.00    +0.000 C 
ATOM     23  O   UNL     1      49.753   1.915  16.456  0.00  0.00    +0.000 OA
ATOM     24  H   UNL     1      50.117   3.428  19.208  0.00  0.00    +0.000 HD
BRANCH  22  25
ATOM     25  C   UNL     1      51.751   2.122  17.687  0.00  0.00    +0.000 A 
ATOM     26  C   UNL     1      52.246   0.833  17.537  0.00  0.00    +0.000 A 
ATOM     27  S   UNL     1      53.923   0.709  17.822  0.00  0.00    +0.000 S 
ATOM     28  C   UNL     1      54.037   2.360  18.212  0.00  0.00    +0.000 A 
ATOM     29  N   UNL     1      55.222   2.914  18.586  0.00  0.00    +0.000 NA
ATOM     30  C   UNL     1      55.157   4.168  18.882  0.00  0.00    +0.000 A 
ATOM     31  N   UNL     1      54.013   4.921  18.832  0.00  0.00    +0.000 N 
ATOM     32  C   UNL     1      52.800   4.414  18.433  0.00  0.00    +0.000 A 
ATOM     33  O   UNL     1      51.804   5.129  18.358  0.00  0.00    +0.000 OA
ATOM     34  C   UNL     1      52.816   3.004  18.102  0.00  0.00    +0.000 A 
ATOM     35  H   UNL     1      54.027   5.903  19.070  0.00  0.00    +0.000 HD
ENDBRANCH  22  25
ENDBRANCH  20  21
ENDBRANCH   4  20
TORSDOF 7
ENDMDL
MODEL 6
REMARK VINA RESULT:    -6.510      2.389      2.915
REMARK INTER + INTRA:         -10.512
REMARK INTER:                  -8.890
REMARK INTRA:                  -1.622
REMARK UNBOUND:                -1.338
REMARK  Name = 
REMARK  8 active torsions:
REMARK  status: ('A' for Active; 'I' for Inactive)
REMARK    1  A    between atoms: C_1  and  O_2
REMARK    2  A    between atoms: O_2  and  C_3
REMARK    3  A    between atoms: C_8  and  C_9
REMARK    4  A    between atoms: N_11  and  C_12
REMARK    5  A    between atoms: C_12  and  C_13
REMARK    6  A    between atoms: C_16  and  C_17
REMARK    7  A    between atoms: C_17  and  N_18
REMARK    8  A    between atoms: C_19  and  C_21
REMARK                            x       y       z     vdW  Elec       q    Type
REMARK                         _______ _______ _______ _____ _____    ______ ____
ROOT
ATOM      1  C   UNL     1      49.624   8.950  15.490  0.00  0.00    +0.000 A 
ATOM      2  C   UNL     1      49.868   7.704  14.898  0.00  0.00    +0.000 A 
ATOM      3  C   UNL     1      49.354   7.401  13.631  0.00  0.00    +0.000 A 
ATOM      4  C   UNL     1      48.601   8.348  12.922  0.00  0.00    +0.000 A 
ATOM      5  C   UNL     1      48.345   9.589  13.522  0.00  0.00    +0.000 A 
ATOM      6  C   UNL     1      48.860   9.891  14.787  0.00  0.00    +0.000 A 
ENDROOT
BRANCH   1   7
ATOM      7  C   UNL     1      50.204   9.289  16.839  0.00  0.00    +0.000 C 
BRANCH   7  10
ATOM      8  C   UNL     1      48.938   7.973  18.493  0.00  0.00    +0.000 C 
ATOM      9  O   UNL     1      47.984   8.744  18.443  0.00  0.00    +0.000 OA
ATOM     10  N   UNL     1      50.080   8.184  17.757  0.00  0.00    +0.000 N 
ATOM     11  H   UNL     1      50.840   7.517  17.835  0.00  0.00    +0.000 HD
BRANCH   8  17
ATOM     12  C   UNL     1      48.964   5.413  18.858  0.00  0.00    +0.000 A 
ATOM     13  C   UNL     1      48.785   4.344  19.751  0.00  0.00    +0.000 A 
ATOM     14  C   UNL     1      48.554   4.572  21.110  0.00  0.00    +0.000 A 
ATOM     15  C   UNL     1      48.510   5.870  21.600  0.00  0.00    +0.000 A 
ATOM     16  C   UNL     1      48.663   6.944  20.723  0.00  0.00    +0.000 A 
ATOM     17  C   UNL     1      48.871   6.735  19.345  0.00  0.00    +0.000 A 
BRANCH  12  19
ATOM     18  C   UNL     1      48.173   4.759  16.693  0.00  0.00    +0.000 C 
ATOM     19  O   UNL     1      49.226   5.237  17.523  0.00  0.00    +0.000 OA
ENDBRANCH  12  19
ENDBRANCH   8  17
ENDBRANCH   7  10
ENDBRANCH   1   7
BRANCH   4  20
ATOM     20  C   UNL     1      48.052   8.039  11.553  0.00  0.00    +0.000 C 
BRANCH  20  21
ATOM     21  N   UNL     1      47.246   6.845  11.564  0.00  0.00    +0.000 N 
ATOM     22  C   UNL     1      45.878   6.910  11.645  0.00  0.00    +0.000 C 
ATOM     23  O   UNL     1      45.277   7.981  11.665  0.00  0.00    +0.000 OA
ATOM     24  H   UNL     1      47.717   5.974  11.789  0.00  0.00    +0.000 HD
BRANCH  22  25
ATOM     25  C   UNL     1      45.158   5.629  11.644  0.00  0.00    +0.000 A 
ATOM     26  C   UNL     1      44.493   5.211  12.790  0.00  0.00    +0.000 A 
ATOM     27  S   UNL     1      43.667   3.730  12.598  0.00  0.00    +0.000 S 
ATOM     28  C   UNL     1      44.215   3.567  10.996  0.00  0.00    +0.000 A 
ATOM     29  N   UNL     1      43.887   2.479  10.249  0.00  0.00    +0.000 NA
ATOM     30  C   UNL     1      44.396   2.471   9.063  0.00  0.00    +0.000 A 
ATOM     31  N   UNL     1      45.199   3.458   8.554  0.00  0.00    +0.000 N 
ATOM     32  C   UNL     1      45.533   4.589   9.259  0.00  0.00    +0.000 A 
ATOM     33  O   UNL     1      46.219   5.474   8.755  0.00  0.00    +0.000 OA
ATOM     34  C   UNL     1      44.997   4.640  10.604  0.00  0.00    +0.000 A 
ATOM     35  H   UNL     1      45.562   3.398   7.613  0.00  0.00    +0.000 HD
ENDBRANCH  22  25
ENDBRANCH  20  21
ENDBRANCH   4  20
TORSDOF 7
ENDMDL
MODEL 7
REMARK VINA RESULT:    -6.464      1.622      2.701
REMARK INTER + INTRA:         -10.448
REMARK INTER:                  -9.296
REMARK INTRA:                  -1.152
REMARK UNBOUND:                -1.338
REMARK  Name = 
REMARK  8 active torsions:
REMARK  status: ('A' for Active; 'I' for Inactive)
REMARK    1  A    between atoms: C_1  and  O_2
REMARK    2  A    between atoms: O_2  and  C_3
REMARK    3  A    between atoms: C_8  and  C_9
REMARK    4  A    between atoms: N_11  and  C_12
REMARK    5  A    between atoms: C_12  and  C_13
REMARK    6  A    between atoms: C_16  and  C_17
REMARK    7  A    between atoms: C_17  and  N_18
REMARK    8  A    between atoms: C_19  and  C_21
REMARK                            x       y       z     vdW  Elec       q    Type
REMARK                         _______ _______ _______ _____ _____    ______ ____
ROOT
ATOM      1  C   UNL     1      49.223   7.574  16.109  0.00  0.00    +0.000 A 
ATOM      2  C   UNL     1      49.191   8.877  15.596  0.00  0.00    +0.000 A 
ATOM      3  C   UNL     1      48.802   9.115  14.272  0.00  0.00    +0.000 A 
ATOM      4  C   UNL     1      48.416   8.055  13.441  0.00  0.00    +0.000 A 
ATOM      5  C   UNL     1      48.462   6.750  13.951  0.00  0.00    +0.000 A 
ATOM      6  C   UNL     1      48.851   6.513  15.273  0.00  0.00    +0.000 A 
ENDROOT
BRANCH   1   7
ATOM      7  C   UNL     1      49.612   7.318  17.542  0.00  0.00    +0.000 C 
BRANCH   7  10
ATOM      8  C   UNL     1      49.946   4.914  17.965  0.00  0.00    +0.000 C 
ATOM      9  O   UNL     1      48.754   4.744  18.205  0.00  0.00    +0.000 OA
ATOM     10  N   UNL     1      50.455   6.154  17.659  0.00  0.00    +0.000 N 
ATOM     11  H   UNL     1      51.447   6.240  17.469  0.00  0.00    +0.000 HD
BRANCH   8  17
ATOM     12  C   UNL     1      52.221   3.782  18.442  0.00  0.00    +0.000 A 
ATOM     13  C   UNL     1      53.033   2.647  18.288  0.00  0.00    +0.000 A 
ATOM     14  C   UNL     1      52.535   1.479  17.703  0.00  0.00    +0.000 A 
ATOM     15  C   UNL     1      51.216   1.426  17.273  0.00  0.00    +0.000 A 
ATOM     16  C   UNL     1      50.403   2.552  17.398  0.00  0.00    +0.000 A 
ATOM     17  C   UNL     1      50.895   3.746  17.962  0.00  0.00    +0.000 A 
BRANCH  12  19
ATOM     18  C   UNL     1      53.948   5.424  18.692  0.00  0.00    +0.000 C 
ATOM     19  O   UNL     1      52.657   4.937  19.041  0.00  0.00    +0.000 OA
ENDBRANCH  12  19
ENDBRANCH   8  17
ENDBRANCH   7  10
ENDBRANCH   1   7
BRANCH   4  20
ATOM     20  C   UNL     1      47.983   8.299  12.018  0.00  0.00    +0.000 C 
BRANCH  20  21
ATOM     21  N   UNL     1      47.373   7.128  11.443  0.00  0.00    +0.000 N 
ATOM     22  C   UNL     1      46.008   6.989  11.391  0.00  0.00    +0.000 C 
ATOM     23  O   UNL     1      45.249   7.868  11.787  0.00  0.00    +0.000 OA
ATOM     24  H   UNL     1      47.961   6.308  11.337  0.00  0.00    +0.000 HD
BRANCH  22  25
ATOM     25  C   UNL     1      45.497   5.754  10.779  0.00  0.00    +0.000 A 
ATOM     26  C   UNL     1      45.715   5.512   9.429  0.00  0.00    +0.000 A 
ATOM     27  S   UNL     1      45.103   4.011   8.897  0.00  0.00    +0.000 S 
ATOM     28  C   UNL     1      44.475   3.656  10.437  0.00  0.00    +0.000 A 
ATOM     29  N   UNL     1      43.789   2.505  10.668  0.00  0.00    +0.000 NA
ATOM     30  C   UNL     1      43.344   2.380  11.873  0.00  0.00    +0.000 A 
ATOM     31  N   UNL     1      43.530   3.300  12.871  0.00  0.00    +0.000 N 
ATOM     32  C   UNL     1      44.241   4.463  12.694  0.00  0.00    +0.000 A 
ATOM     33  O   UNL     1      44.425   5.245  13.623  0.00  0.00    +0.000 OA
ATOM     34  C   UNL     1      44.751   4.658  11.352  0.00  0.00    +0.000 A 
ATOM     35  H   UNL     1      43.163   3.142  13.799  0.00  0.00    +0.000 HD
ENDBRANCH  22  25
ENDBRANCH  20  21
ENDBRANCH   4  20
TORSDOF 7
ENDMDL
MODEL 8
REMARK VINA RESULT:    -6.238      3.343      5.175
REMARK INTER + INTRA:         -10.129
REMARK INTER:                  -9.034
REMARK INTRA:                  -1.095
REMARK UNBOUND:                -1.338
REMARK  Name = 
REMARK  8 active torsions:
REMARK  status: ('A' for Active; 'I' for Inactive)
REMARK    1  A    between atoms: C_1  and  O_2
REMARK    2  A    between atoms: O_2  and  C_3
REMARK    3  A    between atoms: C_8  and  C_9
REMARK    4  A    between atoms: N_11  and  C_12
REMARK    5  A    between atoms: C_12  and  C_13
REMARK    6  A    between atoms: C_16  and  C_17
REMARK    7  A    between atoms: C_17  and  N_18
REMARK    8  A    between atoms: C_19  and  C_21
REMARK                            x       y       z     vdW  Elec       q    Type
REMARK                         _______ _______ _______ _____ _____    ______ ____
ROOT
ATOM      1  C   UNL     1      51.356   3.925  17.672  0.00  0.00    +0.000 A 
ATOM      2  C   UNL     1      50.518   5.046  17.618  0.00  0.00    +0.000 A 
ATOM      3  C   UNL     1      49.156   4.907  17.323  0.00  0.00    +0.000 A 
ATOM      4  C   UNL     1      48.602   3.640  17.095  0.00  0.00    +0.000 A 
ATOM      5  C   UNL     1      49.445   2.521  17.135  0.00  0.00    +0.000 A 
ATOM      6  C   UNL     1      50.804   2.660  17.431  0.00  0.00    +0.000 A 
ENDROOT
BRANCH   1   7
ATOM      7  C   UNL     1      52.815   4.069  18.021  0.00  0.00    +0.000 C 
BRANCH   7  10
ATOM      8  C   UNL     1      53.071   5.133  20.229  0.00  0.00    +0.000 C 
ATOM      9  O   UNL     1      52.848   4.077  20.814  0.00  0.00    +0.000 OA
ATOM     10  N   UNL     1      53.045   5.222  18.857  0.00  0.00    +0.000 N 
ATOM     11  H   UNL     1      53.235   6.118  18.423  0.00  0.00    +0.000 HD
BRANCH   8  17
ATOM     12  C   UNL     1      52.490   7.192  21.681  0.00  0.00    +0.000 A 
ATOM     13  C   UNL     1      52.938   8.379  22.285  0.00  0.00    +0.000 A 
ATOM     14  C   UNL     1      54.289   8.737  22.253  0.00  0.00    +0.000 A 
ATOM     15  C   UNL     1      55.213   7.909  21.630  0.00  0.00    +0.000 A 
ATOM     16  C   UNL     1      54.781   6.739  21.006  0.00  0.00    +0.000 A 
ATOM     17  C   UNL     1      53.420   6.373  21.005  0.00  0.00    +0.000 A 
BRANCH  12  19
ATOM     18  C   UNL     1      50.249   7.455  20.874  0.00  0.00    +0.000 C 
ATOM     19  O   UNL     1      51.180   6.784  21.716  0.00  0.00    +0.000 OA
ENDBRANCH  12  19
ENDBRANCH   8  17
ENDBRANCH   7  10
ENDBRANCH   1   7
BRANCH   4  20
ATOM     20  C   UNL     1      47.135   3.476  16.788  0.00  0.00    +0.000 C 
BRANCH  20  21
ATOM     21  N   UNL     1      46.688   4.438  15.814  0.00  0.00    +0.000 N 
ATOM     22  C   UNL     1      46.809   4.197  14.468  0.00  0.00    +0.000 C 
ATOM     23  O   UNL     1      47.258   3.140  14.034  0.00  0.00    +0.000 OA
ATOM     24  H   UNL     1      46.546   5.389  16.138  0.00  0.00    +0.000 HD
BRANCH  22  25
ATOM     25  C   UNL     1      46.317   5.248  13.566  0.00  0.00    +0.000 A 
ATOM     26  C   UNL     1      47.115   6.350  13.290  0.00  0.00    +0.000 A 
ATOM     27  S   UNL     1      46.412   7.442  12.184  0.00  0.00    +0.000 S 
ATOM     28  C   UNL     1      44.993   6.511  12.078  0.00  0.00    +0.000 A 
ATOM     29  N   UNL     1      43.948   6.907  11.303  0.00  0.00    +0.000 NA
ATOM     30  C   UNL     1      42.925   6.122  11.340  0.00  0.00    +0.000 A 
ATOM     31  N   UNL     1      42.855   4.969  12.079  0.00  0.00    +0.000 N 
ATOM     32  C   UNL     1      43.895   4.513  12.854  0.00  0.00    +0.000 A 
ATOM     33  O   UNL     1      43.813   3.453  13.468  0.00  0.00    +0.000 OA
ATOM     34  C   UNL     1      45.064   5.369  12.857  0.00  0.00    +0.000 A 
ATOM     35  H   UNL     1      42.028   4.390  12.061  0.00  0.00    +0.000 HD
ENDBRANCH  22  25
ENDBRANCH  20  21
ENDBRANCH   4  20
TORSDOF 7
ENDMDL
MODEL 9
REMARK VINA RESULT:    -6.161      3.080      5.509
REMARK INTER + INTRA:         -10.020
REMARK INTER:                  -8.727
REMARK INTRA:                  -1.293
REMARK UNBOUND:                -1.338
REMARK  Name = 
REMARK  8 active torsions:
REMARK  status: ('A' for Active; 'I' for Inactive)
REMARK    1  A    between atoms: C_1  and  O_2
REMARK    2  A    between atoms: O_2  and  C_3
REMARK    3  A    between atoms: C_8  and  C_9
REMARK    4  A    between atoms: N_11  and  C_12
REMARK    5  A    between atoms: C_12  and  C_13
REMARK    6  A    between atoms: C_16  and  C_17
REMARK    7  A    between atoms: C_17  and  N_18
REMARK    8  A    between atoms: C_19  and  C_21
REMARK                            x       y       z     vdW  Elec       q    Type
REMARK                         _______ _______ _______ _____ _____    ______ ____
ROOT
ATOM      1  C   UNL     1      51.384   4.331  17.716  0.00  0.00    +0.000 A 
ATOM      2  C   UNL     1      50.458   5.372  17.560  0.00  0.00    +0.000 A 
ATOM      3  C   UNL     1      49.125   5.099  17.228  0.00  0.00    +0.000 A 
ATOM      4  C   UNL     1      48.687   3.778  17.065  0.00  0.00    +0.000 A 
ATOM      5  C   UNL     1      49.617   2.739  17.207  0.00  0.00    +0.000 A 
ATOM      6  C   UNL     1      50.948   3.011  17.539  0.00  0.00    +0.000 A 
ENDROOT
BRANCH   1   7
ATOM      7  C   UNL     1      52.810   4.620  18.104  0.00  0.00    +0.000 C 
BRANCH   7  10
ATOM      8  C   UNL     1      53.884   6.472  16.884  0.00  0.00    +0.000 C 
ATOM      9  O   UNL     1      54.371   5.705  16.058  0.00  0.00    +0.000 OA
ATOM     10  N   UNL     1      53.128   6.017  17.939  0.00  0.00    +0.000 N 
ATOM     11  H   UNL     1      52.750   6.692  18.593  0.00  0.00    +0.000 HD
BRANCH   8  17
ATOM     12  C   UNL     1      54.364   8.838  17.810  0.00  0.00    +0.000 A 
ATOM     13  C   UNL     1      54.416  10.219  17.559  0.00  0.00    +0.000 A 
ATOM     14  C   UNL     1      54.219  10.724  16.270  0.00  0.00    +0.000 A 
ATOM     15  C   UNL     1      53.980   9.857  15.213  0.00  0.00    +0.000 A 
ATOM     16  C   UNL     1      53.903   8.484  15.450  0.00  0.00    +0.000 A 
ATOM     17  C   UNL     1      54.073   7.958  16.746  0.00  0.00    +0.000 A 
BRANCH  12  19
ATOM     18  C   UNL     1      53.771   8.745  20.130  0.00  0.00    +0.000 C 
ATOM     19  O   UNL     1      54.584   8.295  19.052  0.00  0.00    +0.000 OA
ENDBRANCH  12  19
ENDBRANCH   8  17
ENDBRANCH   7  10
ENDBRANCH   1   7
BRANCH   4  20
ATOM     20  C   UNL     1      47.252   3.470  16.719  0.00  0.00    +0.000 C 
BRANCH  20  21
ATOM     21  N   UNL     1      46.721   4.420  15.775  0.00  0.00    +0.000 N 
ATOM     22  C   UNL     1      46.782   4.187  14.423  0.00  0.00    +0.000 C 
ATOM     23  O   UNL     1      47.245   3.148  13.961  0.00  0.00    +0.000 OA
ATOM     24  H   UNL     1      46.562   5.363  16.110  0.00  0.00    +0.000 HD
BRANCH  22  25
ATOM     25  C   UNL     1      46.205   5.222  13.553  0.00  0.00    +0.000 A 
ATOM     26  C   UNL     1      46.908   6.398  13.321  0.00  0.00    +0.000 A 
ATOM     27  S   UNL     1      46.119   7.464  12.247  0.00  0.00    +0.000 S 
ATOM     28  C   UNL     1      44.786   6.418  12.097  0.00  0.00    +0.000 A 
ATOM     29  N   UNL     1      43.716   6.750  11.327  0.00  0.00    +0.000 NA
ATOM     30  C   UNL     1      42.765   5.878  11.328  0.00  0.00    +0.000 A 
ATOM     31  N   UNL     1      42.790   4.700  12.027  0.00  0.00    +0.000 N 
ATOM     32  C   UNL     1      43.860   4.308  12.795  0.00  0.00    +0.000 A 
ATOM     33  O   UNL     1      43.866   3.224  13.372  0.00  0.00    +0.000 OA
ATOM     34  C   UNL     1      44.951   5.260  12.838  0.00  0.00    +0.000 A 
ATOM     35  H   UNL     1      42.015   4.053  11.982  0.00  0.00    +0.000 HD
ENDBRANCH  22  25
ENDBRANCH  20  21
ENDBRANCH   4  20
TORSDOF 7
ENDMDL
