MODEL 1
REMARK VINA RESULT:    -8.697      0.000      0.000
REMARK INTER + INTRA:         -13.218
REMARK INTER:                 -12.256
REMARK INTRA:                  -0.962
REMARK UNBOUND:                -0.962
REMARK  Name = 
REMARK  9 active torsions:
REMARK  status: ('A' for Active; 'I' for Inactive)
REMARK    1  A    between atoms: C_1  and  C_2
REMARK    2  A    between atoms: C_5  and  C_6
REMARK    3  A    between atoms: N_8  and  C_9
REMARK    4  A    between atoms: C_9  and  C_10
REMARK    5  A    between atoms: C_13  and  C_14
REMARK    6  A    between atoms: C_14  and  N_15
REMARK    7  A    between atoms: N_15  and  C_16
REMARK    8  A    between atoms: C_16  and  C_17
REMARK    9  A    between atoms: C_29  and  C_30
REMARK                            x       y       z     vdW  Elec       q    Type
REMARK                         _______ _______ _______ _____ _____    ______ ____
ROOT
ATOM      1  C   UNL     1      48.023   6.582  13.756  0.00  0.00    +0.000 C 
ENDROOT
BRANCH   1   2
ATOM      2  C   UNL     1      46.868   5.977  12.998  0.00  0.00    +0.000 A 
ATOM      3  C   UNL     1      46.129   4.923  13.551  0.00  0.00    +0.000 A 
ATOM      4  C   UNL     1      45.064   4.348  12.845  0.00  0.00    +0.000 A 
ATOM      5  C   UNL     1      44.718   4.813  11.569  0.00  0.00    +0.000 A 
ATOM      6  C   UNL     1      45.468   5.857  11.012  0.00  0.00    +0.000 A 
ATOM      7  C   UNL     1      46.532   6.429  11.715  0.00  0.00    +0.000 A 
BRANCH   5   8
ATOM      8  C   UNL     1      43.564   4.203  10.801  0.00  0.00    +0.000 C 
BRANCH   8   9
ATOM      9  N   UNL     1      43.983   3.786   9.469  0.00  0.00    +0.000 NA
ATOM     10  H   UNL     1      44.588   4.500   9.065  0.00  0.00    +0.000 HD
BRANCH   9  11
ATOM     11  C   UNL     1      44.707   2.516   9.499  0.00  0.00    +0.000 C 
BRANCH  11  12
ATOM     12  C   UNL     1      45.675   2.434   8.340  0.00  0.00    +0.000 A 
ATOM     13  C   UNL     1      45.879   3.523   7.481  0.00  0.00    +0.000 A 
ATOM     14  C   UNL     1      46.774   3.420   6.412  0.00  0.00    +0.000 A 
ATOM     15  C   UNL     1      47.471   2.233   6.193  0.00  0.00    +0.000 A 
ATOM     16  C   UNL     1      47.278   1.145   7.041  0.00  0.00    +0.000 A 
ATOM     17  C   UNL     1      46.390   1.248   8.110  0.00  0.00    +0.000 A 
ENDBRANCH  11  12
ENDBRANCH   9  11
ENDBRANCH   8   9
ENDBRANCH   5   8
ENDBRANCH   1   2
BRANCH   1  20
ATOM     18  C   UNL     1      49.043   6.283  15.975  0.00  0.00    +0.000 C 
ATOM     19  O   UNL     1      50.169   6.523  15.545  0.00  0.00    +0.000 OA
ATOM     20  N   UNL     1      47.930   6.285  15.168  0.00  0.00    +0.000 N 
ATOM     21  H   UNL     1      47.018   6.336  15.599  0.00  0.00    +0.000 HD
BRANCH  18  26
ATOM     22  C   UNL     1      47.098  10.380  19.523  0.00  0.00    +0.000 C 
ATOM     23  C   UNL     1      47.486   8.930  19.561  0.00  0.00    +0.000 A 
ATOM     24  C   UNL     1      47.913   8.301  18.385  0.00  0.00    +0.000 A 
ATOM     25  C   UNL     1      48.309   6.945  18.415  0.00  0.00    +0.000 A 
ATOM     26  C   UNL     1      48.795   6.026  17.400  0.00  0.00    +0.000 A 
ATOM     27  C   UNL     1      48.984   4.762  17.935  0.00  0.00    +0.000 A 
ATOM     28  S   UNL     1      48.646   4.679  19.605  0.00  0.00    +0.000 S 
ATOM     29  C   UNL     1      48.199   6.319  19.653  0.00  0.00    +0.000 A 
ATOM     30  N   UNL     1      47.783   6.874  20.810  0.00  0.00    +0.000 NA
ATOM     31  C   UNL     1      47.434   8.177  20.736  0.00  0.00    +0.000 A 
ATOM     32  C   UNL     1      46.964   8.798  22.025  0.00  0.00    +0.000 C 
ENDBRANCH  18  26
ENDBRANCH   1  20
TORSDOF 7
ENDMDL
MODEL 2
REMARK VINA RESULT:    -8.491      0.853      1.298
REMARK INTER + INTRA:         -12.927
REMARK INTER:                 -11.947
REMARK INTRA:                  -0.980
REMARK UNBOUND:                -0.962
REMARK  Name = 
REMARK  9 active torsions:
REMARK  status: ('A' for Active; 'I' for Inactive)
REMARK    1  A    between atoms: C_1  and  C_2
REMARK    2  A    between atoms: C_5  and  C_6
REMARK    3  A    between atoms: N_8  and  C_9
REMARK    4  A    between atoms: C_9  and  C_10
REMARK    5  A    between atoms: C_13  and  C_14
REMARK    6  A    between atoms: C_14  and  N_15
REMARK    7  A    between atoms: N_15  and  C_16
REMARK    8  A    between atoms: C_16  and  C_17
REMARK    9  A    between atoms: C_29  and  C_30
REMARK                            x       y       z     vdW  Elec       q    Type
REMARK                         _______ _______ _______ _____ _____    ______ ____
ROOT
ATOM      1  C   UNL     1      48.245   6.345  13.898  0.00  0.00    +0.000 C 
ENDROOT
BRANCH   1   2
ATOM      2  C   UNL     1      47.040   5.939  13.089  0.00  0.00    +0.000 A 
ATOM      3  C   UNL     1      46.810   6.500  11.825  0.00  0.00    +0.000 A 
ATOM      4  C   UNL     1      45.685   6.137  11.074  0.00  0.00    +0.000 A 
ATOM      5  C   UNL     1      44.762   5.207  11.573  0.00  0.00    +0.000 A 
ATOM      6  C   UNL     1      44.986   4.658  12.843  0.00  0.00    +0.000 A 
ATOM      7  C   UNL     1      46.108   5.023  13.593  0.00  0.00    +0.000 A 
BRANCH   5   8
ATOM      8  C   UNL     1      43.547   4.802  10.766  0.00  0.00    +0.000 C 
BRANCH   8   9
ATOM      9  N   UNL     1      43.931   4.310   9.450  0.00  0.00    +0.000 NA
ATOM     10  H   UNL     1      44.709   4.864   9.095  0.00  0.00    +0.000 HD
BRANCH   9  11
ATOM     11  C   UNL     1      44.333   2.904   9.490  0.00  0.00    +0.000 C 
BRANCH  11  12
ATOM     12  C   UNL     1      45.408   2.634   8.462  0.00  0.00    +0.000 A 
ATOM     13  C   UNL     1      45.843   3.635   7.581  0.00  0.00    +0.000 A 
ATOM     14  C   UNL     1      46.834   3.359   6.635  0.00  0.00    +0.000 A 
ATOM     15  C   UNL     1      47.397   2.085   6.560  0.00  0.00    +0.000 A 
ATOM     16  C   UNL     1      46.974   1.084   7.431  0.00  0.00    +0.000 A 
ATOM     17  C   UNL     1      45.990   1.359   8.379  0.00  0.00    +0.000 A 
ENDBRANCH  11  12
ENDBRANCH   9  11
ENDBRANCH   8   9
ENDBRANCH   5   8
ENDBRANCH   1   2
BRANCH   1  20
ATOM     18  C   UNL     1      48.861   6.302  16.280  0.00  0.00    +0.000 C 
ATOM     19  O   UNL     1      50.032   6.030  16.024  0.00  0.00    +0.000 OA
ATOM     20  N   UNL     1      47.912   6.470  15.300  0.00  0.00    +0.000 N 
ATOM     21  H   UNL     1      47.047   6.934  15.537  0.00  0.00    +0.000 HD
BRANCH  18  26
ATOM     22  C   UNL     1      47.540  11.542  18.268  0.00  0.00    +0.000 C 
ATOM     23  C   UNL     1      47.569  10.118  18.742  0.00  0.00    +0.000 A 
ATOM     24  C   UNL     1      47.968   9.106  17.860  0.00  0.00    +0.000 A 
ATOM     25  C   UNL     1      48.028   7.767  18.304  0.00  0.00    +0.000 A 
ATOM     26  C   UNL     1      48.398   6.518  17.657  0.00  0.00    +0.000 A 
ATOM     27  C   UNL     1      48.222   5.450  18.522  0.00  0.00    +0.000 A 
ATOM     28  S   UNL     1      47.685   5.918  20.072  0.00  0.00    +0.000 S 
ATOM     29  C   UNL     1      47.633   7.557  19.621  0.00  0.00    +0.000 A 
ATOM     30  N   UNL     1      47.229   8.490  20.506  0.00  0.00    +0.000 NA
ATOM     31  C   UNL     1      47.208   9.759  20.043  0.00  0.00    +0.000 A 
ATOM     32  C   UNL     1      46.752  10.803  21.028  0.00  0.00    +0.000 C 
ENDBRANCH  18  26
ENDBRANCH   1  20
TORSDOF 7
ENDMDL
MODEL 3
REMARK VINA RESULT:    -8.342      1.342      2.402
REMARK INTER + INTRA:         -12.717
REMARK INTER:                 -11.680
REMARK INTRA:                  -1.037
REMARK UNBOUND:                -0.962
REMARK  Name = 
REMARK  9 active torsions:
REMARK  status: ('A' for Active; 'I' for Inactive)
REMARK    1  A    between atoms: C_1  and  C_2
REMARK    2  A    between atoms: C_5  and  C_6
REMARK    3  A    between atoms: N_8  and  C_9
REMARK    4  A    between atoms: C_9  and  C_10
REMARK    5  A    between atoms: C_13  and  C_14
REMARK    6  A    between atoms: C_14  and  N_15
REMARK    7  A    between atoms: N_15  and  C_16
REMARK    8  A    between atoms: C_16  and  C_17
REMARK    9  A    between atoms: C_29  and  C_30
REMARK                            x       y       z     vdW  Elec       q    Type
REMARK                         _______ _______ _______ _____ _____    ______ ____
ROOT
ATOM      1  C   UNL     1      48.373   6.428  13.327  0.00  0.00    +0.000 C 
ENDROOT
BRANCH   1   2
ATOM      2  C   UNL     1      47.124   5.854  12.707  0.00  0.00    +0.000 A 
ATOM      3  C   UNL     1      46.590   6.413  11.538  0.00  0.00    +0.000 A 
ATOM      4  C   UNL     1      45.423   5.893  10.965  0.00  0.00    +0.000 A 
ATOM      5  C   UNL     1      44.762   4.805  11.550  0.00  0.00    +0.000 A 
ATOM      6  C   UNL     1      45.289   4.257  12.727  0.00  0.00    +0.000 A 
ATOM      7  C   UNL     1      46.453   4.778  13.301  0.00  0.00    +0.000 A 
BRANCH   5   8
ATOM      8  C   UNL     1      43.503   4.230  10.935  0.00  0.00    +0.000 C 
BRANCH   8   9
ATOM      9  N   UNL     1      43.757   3.734   9.588  0.00  0.00    +0.000 NA
ATOM     10  H   UNL     1      44.316   4.416   9.077  0.00  0.00    +0.000 HD
BRANCH   9  11
ATOM     11  C   UNL     1      44.469   2.457   9.604  0.00  0.00    +0.000 C 
BRANCH  11  12
ATOM     12  C   UNL     1      45.488   2.408   8.489  0.00  0.00    +0.000 A 
ATOM     13  C   UNL     1      46.198   1.234   8.200  0.00  0.00    +0.000 A 
ATOM     14  C   UNL     1      47.140   1.216   7.168  0.00  0.00    +0.000 A 
ATOM     15  C   UNL     1      47.382   2.366   6.418  0.00  0.00    +0.000 A 
ATOM     16  C   UNL     1      46.682   3.538   6.695  0.00  0.00    +0.000 A 
ATOM     17  C   UNL     1      45.738   3.556   7.720  0.00  0.00    +0.000 A 
ENDBRANCH  11  12
ENDBRANCH   9  11
ENDBRANCH   8   9
ENDBRANCH   5   8
ENDBRANCH   1   2
BRANCH   1  20
ATOM     18  C   UNL     1      49.066   7.200  15.558  0.00  0.00    +0.000 C 
ATOM     19  O   UNL     1      50.228   6.843  15.376  0.00  0.00    +0.000 OA
ATOM     20  N   UNL     1      48.086   7.032  14.609  0.00  0.00    +0.000 N 
ATOM     21  H   UNL     1      47.229   7.559  14.698  0.00  0.00    +0.000 HD
BRANCH  18  26
ATOM     22  C   UNL     1      48.559   4.411  20.570  0.00  0.00    +0.000 C 
ATOM     23  C   UNL     1      48.394   5.797  20.016  0.00  0.00    +0.000 A 
ATOM     24  C   UNL     1      48.656   6.031  18.660  0.00  0.00    +0.000 A 
ATOM     25  C   UNL     1      48.475   7.324  18.121  0.00  0.00    +0.000 A 
ATOM     26  C   UNL     1      48.649   7.883  16.790  0.00  0.00    +0.000 A 
ATOM     27  C   UNL     1      48.399   9.246  16.796  0.00  0.00    +0.000 A 
ATOM     28  S   UNL     1      47.922   9.838  18.323  0.00  0.00    +0.000 S 
ATOM     29  C   UNL     1      48.073   8.299  19.030  0.00  0.00    +0.000 A 
ATOM     30  N   UNL     1      47.821   8.129  20.344  0.00  0.00    +0.000 NA
ATOM     31  C   UNL     1      47.988   6.872  20.809  0.00  0.00    +0.000 A 
ATOM     32  C   UNL     1      47.712   6.681  22.277  0.00  0.00    +0.000 C 
ENDBRANCH  18  26
ENDBRANCH   1  20
TORSDOF 7
ENDMDL
MODEL 4
REMARK VINA RESULT:    -8.128      1.705      2.489
REMARK INTER + INTRA:         -12.416
REMARK INTER:                 -11.310
REMARK INTRA:                  -1.106
REMARK UNBOUND:                -0.962
REMARK  Name = 
REMARK  9 active torsions:
REMARK  status: ('A' for Active; 'I' for Inactive)
REMARK    1  A    between atoms: C_1  and  C_2
REMARK    2  A    between atoms: C_5  and  C_6
REMARK    3  A    between atoms: N_8  and  C_9
REMARK    4  A    between atoms: C_9  and  C_10
REMARK    5  A    between atoms: C_13  and  C_14
REMARK    6  A    between atoms: C_14  and  N_15
REMARK    7  A    between atoms: N_15  and  C_16
REMARK    8  A    between atoms: C_16  and  C_17
REMARK    9  A    between atoms: C_29  and  C_30
REMARK                            x       y       z     vdW  Elec       q    Type
REMARK                         _______ _______ _______ _____ _____    ______ ____
ROOT
ATOM      1  C   UNL     1      47.721   7.712  12.961  0.00  0.00    +0.000 C 
ENDROOT
BRANCH   1   2
ATOM      2  C   UNL     1      46.777   6.608  12.556  0.00  0.00    +0.000 A 
ATOM      3  C   UNL     1      46.548   5.520  13.409  0.00  0.00    +0.000 A 
ATOM      4  C   UNL     1      45.683   4.485  13.032  0.00  0.00    +0.000 A 
ATOM      5  C   UNL     1      45.031   4.513  11.791  0.00  0.00    +0.000 A 
ATOM      6  C   UNL     1      45.273   5.595  10.933  0.00  0.00    +0.000 A 
ATOM      7  C   UNL     1      46.139   6.627  11.309  0.00  0.00    +0.000 A 
BRANCH   5   8
ATOM      8  C   UNL     1      44.089   3.403  11.376  0.00  0.00    +0.000 C 
BRANCH   8   9
ATOM      9  N   UNL     1      44.793   2.370  10.628  0.00  0.00    +0.000 NA
ATOM     10  H   UNL     1      44.624   1.463  11.062  0.00  0.00    +0.000 HD
BRANCH   9  11
ATOM     11  C   UNL     1      44.355   2.314   9.234  0.00  0.00    +0.000 C 
BRANCH  11  12
ATOM     12  C   UNL     1      45.545   2.397   8.305  0.00  0.00    +0.000 A 
ATOM     13  C   UNL     1      45.899   3.601   7.679  0.00  0.00    +0.000 A 
ATOM     14  C   UNL     1      46.999   3.651   6.818  0.00  0.00    +0.000 A 
ATOM     15  C   UNL     1      47.753   2.503   6.575  0.00  0.00    +0.000 A 
ATOM     16  C   UNL     1      47.412   1.303   7.193  0.00  0.00    +0.000 A 
ATOM     17  C   UNL     1      46.318   1.252   8.056  0.00  0.00    +0.000 A 
ENDBRANCH  11  12
ENDBRANCH   9  11
ENDBRANCH   8   9
ENDBRANCH   5   8
ENDBRANCH   1   2
BRANCH   1  20
ATOM     18  C   UNL     1      49.086   7.691  15.008  0.00  0.00    +0.000 C 
ATOM     19  O   UNL     1      50.127   7.546  14.372  0.00  0.00    +0.000 OA
ATOM     20  N   UNL     1      47.857   7.778  14.399  0.00  0.00    +0.000 N 
ATOM     21  H   UNL     1      47.078   8.146  14.927  0.00  0.00    +0.000 HD
BRANCH  18  26
ATOM     22  C   UNL     1      48.483   3.167  18.519  0.00  0.00    +0.000 C 
ATOM     23  C   UNL     1      48.673   4.654  18.600  0.00  0.00    +0.000 A 
ATOM     24  C   UNL     1      48.793   5.398  17.419  0.00  0.00    +0.000 A 
ATOM     25  C   UNL     1      48.942   6.801  17.482  0.00  0.00    +0.000 A 
ATOM     26  C   UNL     1      49.083   7.835  16.470  0.00  0.00    +0.000 A 
ATOM     27  C   UNL     1      49.268   9.075  17.061  0.00  0.00    +0.000 A 
ATOM     28  S   UNL     1      49.224   9.023  18.765  0.00  0.00    +0.000 S 
ATOM     29  C   UNL     1      48.997   7.338  18.765  0.00  0.00    +0.000 A 
ATOM     30  N   UNL     1      48.899   6.668  19.931  0.00  0.00    +0.000 NA
ATOM     31  C   UNL     1      48.737   5.331  19.820  0.00  0.00    +0.000 A 
ATOM     32  C   UNL     1      48.633   4.579  21.121  0.00  0.00    +0.000 C 
ENDBRANCH  18  26
ENDBRANCH   1  20
TORSDOF 7
ENDMDL
MODEL 5
REMARK VINA RESULT:    -7.895      4.351      6.789
REMARK INTER + INTRA:         -12.088
REMARK INTER:                 -11.024
REMARK INTRA:                  -1.064
REMARK UNBOUND:                -0.962
REMARK  Name = 
REMARK  9 active torsions:
REMARK  status: ('A' for Active; 'I' for Inactive)
REMARK    1  A    between atoms: C_1  and  C_2
REMARK    2  A    between atoms: C_5  and  C_6
REMARK    3  A    between atoms: N_8  and  C_9
REMARK    4  A    between atoms: C_9  and  C_10
REMARK    5  A    between atoms: C_13  and  C_14
REMARK    6  A    between atoms: C_14  and  N_15
REMARK    7  A    between atoms: N_15  and  C_16
REMARK    8  A    between atoms: C_16  and  C_17
REMARK    9  A    between atoms: C_29  and  C_30
REMARK                            x       y       z     vdW  Elec       q    Type
REMARK                         _______ _______ _______ _____ _____    ______ ____
ROOT
ATOM      1  C   UNL     1      48.361   6.314  13.482  0.00  0.00    +0.000 C 
ENDROOT
BRANCH   1   2
ATOM      2  C   UNL     1      47.123   5.899  12.727  0.00  0.00    +0.000 A 
ATOM      3  C   UNL     1      46.336   4.834  13.184  0.00  0.00    +0.000 A 
ATOM      4  C   UNL     1      45.193   4.435  12.480  0.00  0.00    +0.000 A 
ATOM      5  C   UNL     1      44.815   5.090  11.299  0.00  0.00    +0.000 A 
ATOM      6  C   UNL     1      45.612   6.145  10.836  0.00  0.00    +0.000 A 
ATOM      7  C   UNL     1      46.755   6.542  11.538  0.00  0.00    +0.000 A 
BRANCH   5   8
ATOM      8  C   UNL     1      43.578   4.671  10.534  0.00  0.00    +0.000 C 
BRANCH   8   9
ATOM      9  N   UNL     1      43.923   4.191   9.202  0.00  0.00    +0.000 NA
ATOM     10  H   UNL     1      44.669   4.769   8.816  0.00  0.00    +0.000 HD
BRANCH   9  11
ATOM     11  C   UNL     1      44.368   2.799   9.223  0.00  0.00    +0.000 C 
BRANCH  11  12
ATOM     12  C   UNL     1      45.508   2.595   8.252  0.00  0.00    +0.000 A 
ATOM     13  C   UNL     1      45.931   3.623   7.397  0.00  0.00    +0.000 A 
ATOM     14  C   UNL     1      46.984   3.409   6.503  0.00  0.00    +0.000 A 
ATOM     15  C   UNL     1      47.621   2.169   6.454  0.00  0.00    +0.000 A 
ATOM     16  C   UNL     1      47.210   1.141   7.299  0.00  0.00    +0.000 A 
ATOM     17  C   UNL     1      46.164   1.355   8.195  0.00  0.00    +0.000 A 
ENDBRANCH  11  12
ENDBRANCH   9  11
ENDBRANCH   8   9
ENDBRANCH   5   8
ENDBRANCH   1   2
BRANCH   1  20
ATOM     18  C   UNL     1      50.175   7.970  13.325  0.00  0.00    +0.000 C 
ATOM     19  O   UNL     1      50.592   7.692  14.447  0.00  0.00    +0.000 OA
ATOM     20  N   UNL     1      49.081   7.347  12.771  0.00  0.00    +0.000 N 
ATOM     21  H   UNL     1      48.934   7.421  11.775  0.00  0.00    +0.000 HD
BRANCH  18  26
ATOM     22  C   UNL     1      52.946   6.445   8.514  0.00  0.00    +0.000 C 
ATOM     23  C   UNL     1      52.624   7.684   9.299  0.00  0.00    +0.000 A 
ATOM     24  C   UNL     1      51.865   7.577  10.472  0.00  0.00    +0.000 A 
ATOM     25  C   UNL     1      51.582   8.732  11.234  0.00  0.00    +0.000 A 
ATOM     26  C   UNL     1      50.847   8.955  12.469  0.00  0.00    +0.000 A 
ATOM     27  C   UNL     1      50.802  10.307  12.772  0.00  0.00    +0.000 A 
ATOM     28  S   UNL     1      51.650  11.278  11.656  0.00  0.00    +0.000 S 
ATOM     29  C   UNL     1      52.069   9.926  10.712  0.00  0.00    +0.000 A 
ATOM     30  N   UNL     1      52.791  10.085   9.584  0.00  0.00    +0.000 NA
ATOM     31  C   UNL     1      53.055   8.951   8.900  0.00  0.00    +0.000 A 
ATOM     32  C   UNL     1      53.856   9.126   7.637  0.00  0.00    +0.000 C 
ENDBRANCH  18  26
ENDBRANCH   1  20
TORSDOF 7
ENDMDL
MODEL 6
REMARK VINA RESULT:    -7.712      5.903      8.492
REMARK INTER + INTRA:         -11.829
REMARK INTER:                 -10.965
REMARK INTRA:                  -0.864
REMARK UNBOUND:                -0.962
REMARK  Name = 
REMARK  9 active torsions:
REMARK  status: ('A' for Active; 'I' for Inactive)
REMARK    1  A    between atoms: C_1  and  C_2
REMARK    2  A    between atoms: C_5  and  C_6
REMARK    3  A    between atoms: N_8  and  C_9
REMARK    4  A    between atoms: C_9  and  C_10
REMARK    5  A    between atoms: C_13  and  C_14
REMARK    6  A    between atoms: C_14  and  N_15
REMARK    7  A    between atoms: N_15  and  C_16
REMARK    8  A    between atoms: C_16  and  C_17
REMARK    9  A    between atoms: C_29  and  C_30
REMARK                            x       y       z     vdW  Elec       q    Type
REMARK                         _______ _______ _______ _____ _____    ______ ____
ROOT
ATOM      1  C   UNL     1      44.786   8.742  12.212  0.00  0.00    +0.000 C 
ENDROOT
BRANCH   1   2
ATOM      2  C   UNL     1      44.576   7.258  12.052  0.00  0.00    +0.000 A 
ATOM      3  C   UNL     1      45.410   6.346  12.714  0.00  0.00    +0.000 A 
ATOM      4  C   UNL     1      45.228   4.966  12.558  0.00  0.00    +0.000 A 
ATOM      5  C   UNL     1      44.211   4.467  11.733  0.00  0.00    +0.000 A 
ATOM      6  C   UNL     1      43.388   5.380  11.060  0.00  0.00    +0.000 A 
ATOM      7  C   UNL     1      43.572   6.758  11.214  0.00  0.00    +0.000 A 
BRANCH   5   8
ATOM      8  C   UNL     1      44.002   2.977  11.563  0.00  0.00    +0.000 C 
BRANCH   8   9
ATOM      9  N   UNL     1      45.006   2.405  10.675  0.00  0.00    +0.000 NA
ATOM     10  H   UNL     1      45.330   1.518  11.058  0.00  0.00    +0.000 HD
BRANCH   9  11
ATOM     11  C   UNL     1      44.476   2.172   9.332  0.00  0.00    +0.000 C 
BRANCH  11  12
ATOM     12  C   UNL     1      45.581   2.275   8.305  0.00  0.00    +0.000 A 
ATOM     13  C   UNL     1      46.400   1.177   8.003  0.00  0.00    +0.000 A 
ATOM     14  C   UNL     1      47.419   1.299   7.054  0.00  0.00    +0.000 A 
ATOM     15  C   UNL     1      47.629   2.513   6.401  0.00  0.00    +0.000 A 
ATOM     16  C   UNL     1      46.820   3.609   6.692  0.00  0.00    +0.000 A 
ATOM     17  C   UNL     1      45.800   3.488   7.634  0.00  0.00    +0.000 A 
ENDBRANCH  11  12
ENDBRANCH   9  11
ENDBRANCH   8   9
ENDBRANCH   5   8
ENDBRANCH   1   2
BRANCH   1  20
ATOM     18  C   UNL     1      43.904  10.862  11.329  0.00  0.00    +0.000 C 
ATOM     19  O   UNL     1      44.723  11.524  11.962  0.00  0.00    +0.000 OA
ATOM     20  N   UNL     1      43.858   9.490  11.394  0.00  0.00    +0.000 N 
ATOM     21  H   UNL     1      43.353   8.987  10.679  0.00  0.00    +0.000 HD
BRANCH  18  26
ATOM     22  C   UNL     1      38.216  10.297  12.021  0.00  0.00    +0.000 C 
ATOM     23  C   UNL     1      39.189  10.968  11.096  0.00  0.00    +0.000 A 
ATOM     24  C   UNL     1      40.564  10.839  11.332  0.00  0.00    +0.000 A 
ATOM     25  C   UNL     1      41.490  11.440  10.451  0.00  0.00    +0.000 A 
ATOM     26  C   UNL     1      42.942  11.488  10.412  0.00  0.00    +0.000 A 
ATOM     27  C   UNL     1      43.377  12.279   9.360  0.00  0.00    +0.000 A 
ATOM     28  S   UNL     1      42.102  12.904   8.415  0.00  0.00    +0.000 S 
ATOM     29  C   UNL     1      40.931  12.170   9.405  0.00  0.00    +0.000 A 
ATOM     30  N   UNL     1      39.620  12.336   9.141  0.00  0.00    +0.000 NA
ATOM     31  C   UNL     1      38.773  11.725   9.998  0.00  0.00    +0.000 A 
ATOM     32  C   UNL     1      37.307  11.914   9.709  0.00  0.00    +0.000 C 
ENDBRANCH  18  26
ENDBRANCH   1  20
TORSDOF 7
ENDMDL
MODEL 7
REMARK VINA RESULT:    -6.973      2.126      2.814
REMARK INTER + INTRA:         -10.787
REMARK INTER:                  -9.699
REMARK INTRA:                  -1.088
REMARK UNBOUND:                -0.962
REMARK  Name = 
REMARK  9 active torsions:
REMARK  status: ('A' for Active; 'I' for Inactive)
REMARK    1  A    between atoms: C_1  and  C_2
REMARK    2  A    between atoms: C_5  and  C_6
REMARK    3  A    between atoms: N_8  and  C_9
REMARK    4  A    between atoms: C_9  and  C_10
REMARK    5  A    between atoms: C_13  and  C_14
REMARK    6  A    between atoms: C_14  and  N_15
REMARK    7  A    between atoms: N_15  and  C_16
REMARK    8  A    between atoms: C_16  and  C_17
REMARK    9  A    between atoms: C_29  and  C_30
REMARK                            x       y       z     vdW  Elec       q    Type
REMARK                         _______ _______ _______ _____ _____    ______ ____
ROOT
ATOM      1  C   UNL     1      49.782   7.932  13.013  0.00  0.00    +0.000 C 
ENDROOT
BRANCH   1   2
ATOM      2  C   UNL     1      48.350   7.555  12.731  0.00  0.00    +0.000 A 
ATOM      3  C   UNL     1      47.979   6.208  12.617  0.00  0.00    +0.000 A 
ATOM      4  C   UNL     1      46.653   5.852  12.340  0.00  0.00    +0.000 A 
ATOM      5  C   UNL     1      45.669   6.835  12.168  0.00  0.00    +0.000 A 
ATOM      6  C   UNL     1      46.045   8.182  12.268  0.00  0.00    +0.000 A 
ATOM      7  C   UNL     1      47.369   8.537  12.541  0.00  0.00    +0.000 A 
BRANCH   5   8
ATOM      8  C   UNL     1      44.231   6.461  11.877  0.00  0.00    +0.000 C 
BRANCH   8   9
ATOM      9  N   UNL     1      44.084   5.967  10.514  0.00  0.00    +0.000 NA
ATOM     10  H   UNL     1      44.960   6.097  10.010  0.00  0.00    +0.000 HD
BRANCH   9  11
ATOM     11  C   UNL     1      43.728   4.550  10.484  0.00  0.00    +0.000 C 
BRANCH  11  12
ATOM     12  C   UNL     1      44.631   3.800   9.531  0.00  0.00    +0.000 A 
ATOM     13  C   UNL     1      45.443   4.477   8.610  0.00  0.00    +0.000 A 
ATOM     14  C   UNL     1      46.264   3.762   7.734  0.00  0.00    +0.000 A 
ATOM     15  C   UNL     1      46.281   2.367   7.769  0.00  0.00    +0.000 A 
ATOM     16  C   UNL     1      45.480   1.684   8.681  0.00  0.00    +0.000 A 
ATOM     17  C   UNL     1      44.664   2.397   9.558  0.00  0.00    +0.000 A 
ENDBRANCH  11  12
ENDBRANCH   9  11
ENDBRANCH   8   9
ENDBRANCH   5   8
ENDBRANCH   1   2
BRANCH   1  20
ATOM     18  C   UNL     1      50.505   7.870  15.364  0.00  0.00    +0.000 C 
ATOM     19  O   UNL     1      50.293   9.071  15.513  0.00  0.00    +0.000 OA
ATOM     20  N   UNL     1      50.287   7.226  14.169  0.00  0.00    +0.000 N 
ATOM     21  H   UNL     1      50.231   6.218  14.165  0.00  0.00    +0.000 HD
BRANCH  18  26
ATOM     22  C   UNL     1      46.955   6.161  19.563  0.00  0.00    +0.000 C 
ATOM     23  C   UNL     1      48.390   6.005  19.151  0.00  0.00    +0.000 A 
ATOM     24  C   UNL     1      48.841   6.623  17.977  0.00  0.00    +0.000 A 
ATOM     25  C   UNL     1      50.196   6.508  17.596  0.00  0.00    +0.000 A 
ATOM     26  C   UNL     1      50.962   7.019  16.471  0.00  0.00    +0.000 A 
ATOM     27  C   UNL     1      52.268   6.560  16.521  0.00  0.00    +0.000 A 
ATOM     28  S   UNL     1      52.592   5.594  17.889  0.00  0.00    +0.000 S 
ATOM     29  C   UNL     1      50.987   5.727  18.434  0.00  0.00    +0.000 A 
ATOM     30  N   UNL     1      50.602   5.102  19.564  0.00  0.00    +0.000 NA
ATOM     31  C   UNL     1      49.302   5.258  19.900  0.00  0.00    +0.000 A 
ATOM     32  C   UNL     1      48.868   4.556  21.160  0.00  0.00    +0.000 C 
ENDBRANCH  18  26
ENDBRANCH   1  20
TORSDOF 7
ENDMDL
MODEL 8
REMARK VINA RESULT:    -6.530      3.800      8.684
REMARK INTER + INTRA:         -10.164
REMARK INTER:                  -8.242
REMARK INTRA:                  -1.923
REMARK UNBOUND:                -0.962
REMARK  Name = 
REMARK  9 active torsions:
REMARK  status: ('A' for Active; 'I' for Inactive)
REMARK    1  A    between atoms: C_1  and  C_2
REMARK    2  A    between atoms: C_5  and  C_6
REMARK    3  A    between atoms: N_8  and  C_9
REMARK    4  A    between atoms: C_9  and  C_10
REMARK    5  A    between atoms: C_13  and  C_14
REMARK    6  A    between atoms: C_14  and  N_15
REMARK    7  A    between atoms: N_15  and  C_16
REMARK    8  A    between atoms: C_16  and  C_17
REMARK    9  A    between atoms: C_29  and  C_30
REMARK                            x       y       z     vdW  Elec       q    Type
REMARK                         _______ _______ _______ _____ _____    ______ ____
ROOT
ATOM      1  C   UNL     1      50.133   7.684  14.381  0.00  0.00    +0.000 C 
ENDROOT
BRANCH   1   2
ATOM      2  C   UNL     1      50.165   7.283  15.835  0.00  0.00    +0.000 A 
ATOM      3  C   UNL     1      51.083   6.326  16.288  0.00  0.00    +0.000 A 
ATOM      4  C   UNL     1      51.108   5.939  17.634  0.00  0.00    +0.000 A 
ATOM      5  C   UNL     1      50.213   6.500  18.556  0.00  0.00    +0.000 A 
ATOM      6  C   UNL     1      49.287   7.446  18.098  0.00  0.00    +0.000 A 
ATOM      7  C   UNL     1      49.260   7.829  16.753  0.00  0.00    +0.000 A 
BRANCH   5   8
ATOM      8  C   UNL     1      50.237   6.095  20.014  0.00  0.00    +0.000 C 
BRANCH   8   9
ATOM      9  N   UNL     1      50.119   4.649  20.159  0.00  0.00    +0.000 NA
ATOM     10  H   UNL     1      50.483   4.370  21.069  0.00  0.00    +0.000 HD
BRANCH   9  11
ATOM     11  C   UNL     1      48.732   4.203  20.049  0.00  0.00    +0.000 C 
BRANCH  11  12
ATOM     12  C   UNL     1      48.399   3.868  18.612  0.00  0.00    +0.000 A 
ATOM     13  C   UNL     1      47.363   4.523  17.932  0.00  0.00    +0.000 A 
ATOM     14  C   UNL     1      47.069   4.192  16.606  0.00  0.00    +0.000 A 
ATOM     15  C   UNL     1      47.806   3.205  15.950  0.00  0.00    +0.000 A 
ATOM     16  C   UNL     1      48.838   2.550  16.616  0.00  0.00    +0.000 A 
ATOM     17  C   UNL     1      49.135   2.883  17.936  0.00  0.00    +0.000 A 
ENDBRANCH  11  12
ENDBRANCH   9  11
ENDBRANCH   8   9
ENDBRANCH   5   8
ENDBRANCH   1   2
BRANCH   1  20
ATOM     18  C   UNL     1      48.420   8.470  12.799  0.00  0.00    +0.000 C 
ATOM     19  O   UNL     1      49.219   9.203  12.221  0.00  0.00    +0.000 OA
ATOM     20  N   UNL     1      48.779   7.691  13.874  0.00  0.00    +0.000 N 
ATOM     21  H   UNL     1      48.172   6.931  14.147  0.00  0.00    +0.000 HD
BRANCH  18  26
ATOM     22  C   UNL     1      45.756   3.367  12.639  0.00  0.00    +0.000 C 
ATOM     23  C   UNL     1      45.470   4.812  12.344  0.00  0.00    +0.000 A 
ATOM     24  C   UNL     1      46.471   5.769  12.556  0.00  0.00    +0.000 A 
ATOM     25  C   UNL     1      46.222   7.126  12.254  0.00  0.00    +0.000 A 
ATOM     26  C   UNL     1      47.028   8.332  12.351  0.00  0.00    +0.000 A 
ATOM     27  C   UNL     1      46.288   9.445  11.987  0.00  0.00    +0.000 A 
ATOM     28  S   UNL     1      44.699   9.066  11.493  0.00  0.00    +0.000 S 
ATOM     29  C   UNL     1      44.941   7.410  11.790  0.00  0.00    +0.000 A 
ATOM     30  N   UNL     1      43.940   6.531  11.582  0.00  0.00    +0.000 NA
ATOM     31  C   UNL     1      44.231   5.242  11.864  0.00  0.00    +0.000 A 
ATOM     32  C   UNL     1      43.113   4.259  11.637  0.00  0.00    +0.000 C 
ENDBRANCH  18  26
ENDBRANCH   1  20
TORSDOF 7
ENDMDL
MODEL 9
REMARK VINA RESULT:    -6.396      3.925      6.099
REMARK INTER + INTRA:          -9.974
REMARK INTER:                  -8.358
REMARK INTRA:                  -1.617
REMARK UNBOUND:                -0.962
REMARK  Name = 
REMARK  9 active torsions:
REMARK  status: ('A' for Active; 'I' for Inactive)
REMARK    1  A    between atoms: C_1  and  C_2
REMARK    2  A    between atoms: C_5  and  C_6
REMARK    3  A    between atoms: N_8  and  C_9
REMARK    4  A    between atoms: C_9  and  C_10
REMARK    5  A    between atoms: C_13  and  C_14
REMARK    6  A    between atoms: C_14  and  N_15
REMARK    7  A    between atoms: N_15  and  C_16
REMARK    8  A    between atoms: C_16  and  C_17
REMARK    9  A    between atoms: C_29  and  C_30
REMARK                            x       y       z     vdW  Elec       q    Type
REMARK                         _______ _______ _______ _____ _____    ______ ____
ROOT
ATOM      1  C   UNL     1      45.787   5.233  13.078  0.00  0.00    +0.000 C 
ENDROOT
BRANCH   1   2
ATOM      2  C   UNL     1      45.550   6.646  12.607  0.00  0.00    +0.000 A 
ATOM      3  C   UNL     1      46.317   7.703  13.116  0.00  0.00    +0.000 A 
ATOM      4  C   UNL     1      46.092   9.019  12.693  0.00  0.00    +0.000 A 
ATOM      5  C   UNL     1      45.091   9.307  11.755  0.00  0.00    +0.000 A 
ATOM      6  C   UNL     1      44.315   8.251  11.259  0.00  0.00    +0.000 A 
ATOM      7  C   UNL     1      44.539   6.938  11.684  0.00  0.00    +0.000 A 
BRANCH   5   8
ATOM      8  C   UNL     1      44.845  10.725  11.285  0.00  0.00    +0.000 C 
BRANCH   8   9
ATOM      9  N   UNL     1      45.425  11.692  12.209  0.00  0.00    +0.000 NA
ATOM     10  H   UNL     1      45.812  11.201  13.013  0.00  0.00    +0.000 HD
BRANCH   9  11
ATOM     11  C   UNL     1      46.486  12.477  11.579  0.00  0.00    +0.000 C 
BRANCH  11  12
ATOM     12  C   UNL     1      47.834  11.844  11.840  0.00  0.00    +0.000 A 
ATOM     13  C   UNL     1      48.431  11.896  13.108  0.00  0.00    +0.000 A 
ATOM     14  C   UNL     1      49.681  11.310  13.323  0.00  0.00    +0.000 A 
ATOM     15  C   UNL     1      50.345  10.669  12.277  0.00  0.00    +0.000 A 
ATOM     16  C   UNL     1      49.761  10.610  11.014  0.00  0.00    +0.000 A 
ATOM     17  C   UNL     1      48.512  11.190  10.800  0.00  0.00    +0.000 A 
ENDBRANCH  11  12
ENDBRANCH   9  11
ENDBRANCH   8   9
ENDBRANCH   5   8
ENDBRANCH   1   2
BRANCH   1  20
ATOM     18  C   UNL     1      47.138   4.136  14.817  0.00  0.00    +0.000 C 
ATOM     19  O   UNL     1      47.294   3.129  14.130  0.00  0.00    +0.000 OA
ATOM     20  N   UNL     1      46.409   5.217  14.383  0.00  0.00    +0.000 N 
ATOM     21  H   UNL     1      46.521   6.101  14.860  0.00  0.00    +0.000 HD
BRANCH  18  26
ATOM     22  C   UNL     1      50.077   8.860  16.298  0.00  0.00    +0.000 C 
ATOM     23  C   UNL     1      49.669   7.541  16.888  0.00  0.00    +0.000 A 
ATOM     24  C   UNL     1      48.898   6.655  16.125  0.00  0.00    +0.000 A 
ATOM     25  C   UNL     1      48.534   5.399  16.658  0.00  0.00    +0.000 A 
ATOM     26  C   UNL     1      47.766   4.280  16.137  0.00  0.00    +0.000 A 
ATOM     27  C   UNL     1      47.635   3.289  17.096  0.00  0.00    +0.000 A 
ATOM     28  S   UNL     1      48.443   3.650  18.554  0.00  0.00    +0.000 S 
ATOM     29  C   UNL     1      48.958   5.159  17.962  0.00  0.00    +0.000 A 
ATOM     30  N   UNL     1      49.688   5.980  18.742  0.00  0.00    +0.000 NA
ATOM     31  C   UNL     1      50.030   7.161  18.183  0.00  0.00    +0.000 A 
ATOM     32  C   UNL     1      50.842   8.082  19.055  0.00  0.00    +0.000 C 
ENDBRANCH  18  26
ENDBRANCH   1  20
TORSDOF 7
ENDMDL
