MODEL 1
REMARK VINA RESULT:    -8.823      0.000      0.000
REMARK INTER + INTRA:         -11.952
REMARK INTER:                 -11.402
REMARK INTRA:                  -0.550
REMARK UNBOUND:                -0.550
REMARK  Name = 
REMARK  5 active torsions:
REMARK  status: ('A' for Active; 'I' for Inactive)
REMARK    1  A    between atoms: C_2  and  C_18
REMARK    2  A    between atoms: N_3  and  C_4
REMARK    3  A    between atoms: C_4  and  C_5
REMARK    4  A    between atoms: C_8  and  C_9
REMARK    5  A    between atoms: C_9  and  C_10
REMARK                            x       y       z     vdW  Elec       q    Type
REMARK                         _______ _______ _______ _____ _____    ______ ____
ROOT
ATOM      1  O   UNL     1      48.197   7.012  12.629  0.00  0.00    +0.000 OA
ATOM      2  C   UNL     1      47.545   6.705  13.623  0.00  0.00    +0.000 C 
ATOM      3  N   UNL     1      46.177   6.618  13.611  0.00  0.00    +0.000 N 
ATOM      4  H   UNL     1      45.673   6.535  14.488  0.00  0.00    +0.000 HD
ENDROOT
BRANCH   2   5
ATOM      5  C   UNL     1      48.204   6.352  14.885  0.00  0.00    +0.000 A 
ATOM      6  C   UNL     1      49.134   7.220  15.443  0.00  0.00    +0.000 A 
ATOM      7  S   UNL     1      49.784   6.661  16.918  0.00  0.00    +0.000 S 
ATOM      8  C   UNL     1      48.818   5.259  16.876  0.00  0.00    +0.000 A 
ATOM      9  N   UNL     1      48.857   4.353  17.888  0.00  0.00    +0.000 NA
ATOM     10  C   UNL     1      48.039   3.362  17.745  0.00  0.00    +0.000 A 
ATOM     11  N   UNL     1      47.205   3.186  16.674  0.00  0.00    +0.000 N 
ATOM     12  C   UNL     1      47.200   4.027  15.589  0.00  0.00    +0.000 A 
ATOM     13  O   UNL     1      46.560   3.752  14.575  0.00  0.00    +0.000 OA
ATOM     14  C   UNL     1      48.044   5.195  15.731  0.00  0.00    +0.000 A 
ATOM     15  H   UNL     1      46.622   2.363  16.601  0.00  0.00    +0.000 HD
ENDBRANCH   2   5
BRANCH   3  16
ATOM     16  C   UNL     1      45.394   6.953  12.451  0.00  0.00    +0.000 C 
BRANCH  16  17
ATOM     17  C   UNL     1      45.193   5.770  11.540  0.00  0.00    +0.000 A 
ATOM     18  C   UNL     1      45.619   5.829  10.208  0.00  0.00    +0.000 A 
ATOM     19  C   UNL     1      45.498   4.719   9.369  0.00  0.00    +0.000 A 
ATOM     20  C   UNL     1      44.934   3.526   9.843  0.00  0.00    +0.000 A 
ATOM     21  C   UNL     1      44.475   3.479  11.167  0.00  0.00    +0.000 A 
ATOM     22  C   UNL     1      44.590   4.594  12.003  0.00  0.00    +0.000 A 
BRANCH  20  23
ATOM     23  C   UNL     1      44.858   2.305   8.954  0.00  0.00    +0.000 C 
BRANCH  23  24
ATOM     24  C   UNL     1      45.911   2.281   7.878  0.00  0.00    +0.000 A 
ATOM     25  C   UNL     1      45.972   3.267   6.889  0.00  0.00    +0.000 A 
ATOM     26  C   UNL     1      46.920   3.171   5.873  0.00  0.00    +0.000 A 
ATOM     27  C   UNL     1      47.788   2.093   5.884  0.00  0.00    +0.000 A 
ATOM     28  N   UNL     1      47.778   1.133   6.833  0.00  0.00    +0.000 NA
ATOM     29  C   UNL     1      46.839   1.245   7.801  0.00  0.00    +0.000 A 
ENDBRANCH  23  24
ENDBRANCH  20  23
ENDBRANCH  16  17
ENDBRANCH   3  16
TORSDOF 5
ENDMDL
MODEL 2
REMARK VINA RESULT:    -8.179      1.601      2.349
REMARK INTER + INTRA:         -11.119
REMARK INTER:                 -10.285
REMARK INTRA:                  -0.834
REMARK UNBOUND:                -0.550
REMARK  Name = 
REMARK  5 active torsions:
REMARK  status: ('A' for Active; 'I' for Inactive)
REMARK    1  A    between atoms: C_2  and  C_18
REMARK    2  A    between atoms: N_3  and  C_4
REMARK    3  A    between atoms: C_4  and  C_5
REMARK    4  A    between atoms: C_8  and  C_9
REMARK    5  A    between atoms: C_9  and  C_10
REMARK                            x       y       z     vdW  Elec       q    Type
REMARK                         _______ _______ _______ _____ _____    ______ ____
ROOT
ATOM      1  O   UNL     1      48.663   6.265  14.007  0.00  0.00    +0.000 OA
ATOM      2  C   UNL     1      47.684   5.798  14.583  0.00  0.00    +0.000 C 
ATOM      3  N   UNL     1      46.410   5.922  14.094  0.00  0.00    +0.000 N 
ATOM      4  H   UNL     1      45.621   5.677  14.684  0.00  0.00    +0.000 HD
ENDROOT
BRANCH   2   5
ATOM      5  C   UNL     1      47.830   5.019  15.818  0.00  0.00    +0.000 A 
ATOM      6  C   UNL     1      47.454   3.682  15.838  0.00  0.00    +0.000 A 
ATOM      7  S   UNL     1      47.711   2.927  17.346  0.00  0.00    +0.000 S 
ATOM      8  C   UNL     1      48.364   4.353  18.010  0.00  0.00    +0.000 A 
ATOM      9  N   UNL     1      48.830   4.379  19.286  0.00  0.00    +0.000 NA
ATOM     10  C   UNL     1      49.338   5.513  19.643  0.00  0.00    +0.000 A 
ATOM     11  N   UNL     1      49.401   6.626  18.847  0.00  0.00    +0.000 N 
ATOM     12  C   UNL     1      48.859   6.669  17.586  0.00  0.00    +0.000 A 
ATOM     13  O   UNL     1      48.787   7.727  16.962  0.00  0.00    +0.000 OA
ATOM     14  C   UNL     1      48.344   5.403  17.110  0.00  0.00    +0.000 A 
ATOM     15  H   UNL     1      49.769   7.497  19.203  0.00  0.00    +0.000 HD
ENDBRANCH   2   5
BRANCH   3  16
ATOM     16  C   UNL     1      46.111   6.675  12.905  0.00  0.00    +0.000 C 
BRANCH  16  17
ATOM     17  C   UNL     1      45.803   5.783  11.730  0.00  0.00    +0.000 A 
ATOM     18  C   UNL     1      45.148   4.562  11.929  0.00  0.00    +0.000 A 
ATOM     19  C   UNL     1      44.798   3.755  10.844  0.00  0.00    +0.000 A 
ATOM     20  C   UNL     1      45.107   4.147   9.534  0.00  0.00    +0.000 A 
ATOM     21  C   UNL     1      45.794   5.354   9.338  0.00  0.00    +0.000 A 
ATOM     22  C   UNL     1      46.150   6.157  10.426  0.00  0.00    +0.000 A 
BRANCH  20  23
ATOM     23  C   UNL     1      44.674   3.304   8.356  0.00  0.00    +0.000 C 
BRANCH  23  24
ATOM     24  C   UNL     1      45.827   2.756   7.556  0.00  0.00    +0.000 A 
ATOM     25  C   UNL     1      46.273   3.383   6.388  0.00  0.00    +0.000 A 
ATOM     26  C   UNL     1      47.299   2.807   5.643  0.00  0.00    +0.000 A 
ATOM     27  C   UNL     1      47.856   1.623   6.096  0.00  0.00    +0.000 A 
ATOM     28  N   UNL     1      47.470   0.999   7.228  0.00  0.00    +0.000 NA
ATOM     29  C   UNL     1      46.465   1.575   7.927  0.00  0.00    +0.000 A 
ENDBRANCH  23  24
ENDBRANCH  20  23
ENDBRANCH  16  17
ENDBRANCH   3  16
TORSDOF 5
ENDMDL
MODEL 3
REMARK VINA RESULT:    -8.009      1.124      1.452
REMARK INTER + INTRA:         -10.900
REMARK INTER:                 -10.428
REMARK INTRA:                  -0.473
REMARK UNBOUND:                -0.550
REMARK  Name = 
REMARK  5 active torsions:
REMARK  status: ('A' for Active; 'I' for Inactive)
REMARK    1  A    between atoms: C_2  and  C_18
REMARK    2  A    between atoms: N_3  and  C_4
REMARK    3  A    between atoms: C_4  and  C_5
REMARK    4  A    between atoms: C_8  and  C_9
REMARK    5  A    between atoms: C_9  and  C_10
REMARK                            x       y       z     vdW  Elec       q    Type
REMARK                         _______ _______ _______ _____ _____    ______ ____
ROOT
ATOM      1  O   UNL     1      49.368   7.298  14.125  0.00  0.00    +0.000 OA
ATOM      2  C   UNL     1      48.454   6.755  14.739  0.00  0.00    +0.000 C 
ATOM      3  N   UNL     1      47.203   6.586  14.207  0.00  0.00    +0.000 N 
ATOM      4  H   UNL     1      46.439   6.294  14.807  0.00  0.00    +0.000 HD
ENDROOT
BRANCH   2   5
ATOM      5  C   UNL     1      48.667   6.194  16.079  0.00  0.00    +0.000 A 
ATOM      6  C   UNL     1      49.286   6.961  17.056  0.00  0.00    +0.000 A 
ATOM      7  S   UNL     1      49.433   6.161  18.556  0.00  0.00    +0.000 S 
ATOM      8  C   UNL     1      48.644   4.776  17.956  0.00  0.00    +0.000 A 
ATOM      9  N   UNL     1      48.401   3.707  18.759  0.00  0.00    +0.000 NA
ATOM     10  C   UNL     1      47.755   2.747  18.184  0.00  0.00    +0.000 A 
ATOM     11  N   UNL     1      47.351   2.751  16.875  0.00  0.00    +0.000 N 
ATOM     12  C   UNL     1      47.656   3.769  16.006  0.00  0.00    +0.000 A 
ATOM     13  O   UNL     1      47.421   3.668  14.802  0.00  0.00    +0.000 OA
ATOM     14  C   UNL     1      48.314   4.904  16.618  0.00  0.00    +0.000 A 
ATOM     15  H   UNL     1      46.890   1.946  16.474  0.00  0.00    +0.000 HD
ENDBRANCH   2   5
BRANCH   3  16
ATOM     16  C   UNL     1      46.841   7.101  12.912  0.00  0.00    +0.000 C 
BRANCH  16  17
ATOM     17  C   UNL     1      46.151   6.066  12.061  0.00  0.00    +0.000 A 
ATOM     18  C   UNL     1      45.903   6.323  10.708  0.00  0.00    +0.000 A 
ATOM     19  C   UNL     1      45.322   5.349   9.891  0.00  0.00    +0.000 A 
ATOM     20  C   UNL     1      44.965   4.099  10.416  0.00  0.00    +0.000 A 
ATOM     21  C   UNL     1      45.182   3.855  11.779  0.00  0.00    +0.000 A 
ATOM     22  C   UNL     1      45.757   4.834  12.597  0.00  0.00    +0.000 A 
BRANCH  20  23
ATOM     23  C   UNL     1      44.393   3.024   9.520  0.00  0.00    +0.000 C 
BRANCH  23  24
ATOM     24  C   UNL     1      45.344   2.575   8.441  0.00  0.00    +0.000 A 
ATOM     25  C   UNL     1      45.948   1.314   8.474  0.00  0.00    +0.000 A 
ATOM     26  C   UNL     1      46.872   0.964   7.492  0.00  0.00    +0.000 A 
ATOM     27  C   UNL     1      47.156   1.885   6.498  0.00  0.00    +0.000 A 
ATOM     28  N   UNL     1      46.579   3.103   6.418  0.00  0.00    +0.000 NA
ATOM     29  C   UNL     1      45.693   3.420   7.391  0.00  0.00    +0.000 A 
ENDBRANCH  23  24
ENDBRANCH  20  23
ENDBRANCH  16  17
ENDBRANCH   3  16
TORSDOF 5
ENDMDL
MODEL 4
REMARK VINA RESULT:    -7.805      2.607      3.319
REMARK INTER + INTRA:         -10.636
REMARK INTER:                  -9.762
REMARK INTRA:                  -0.874
REMARK UNBOUND:                -0.550
REMARK  Name = 
REMARK  5 active torsions:
REMARK  status: ('A' for Active; 'I' for Inactive)
REMARK    1  A    between atoms: C_2  and  C_18
REMARK    2  A    between atoms: N_3  and  C_4
REMARK    3  A    between atoms: C_4  and  C_5
REMARK    4  A    between atoms: C_8  and  C_9
REMARK    5  A    between atoms: C_9  and  C_10
REMARK                            x       y       z     vdW  Elec       q    Type
REMARK                         _______ _______ _______ _____ _____    ______ ____
ROOT
ATOM      1  O   UNL     1      45.275   8.949  13.202  0.00  0.00    +0.000 OA
ATOM      2  C   UNL     1      46.252   8.235  12.993  0.00  0.00    +0.000 C 
ATOM      3  N   UNL     1      46.154   6.878  12.826  0.00  0.00    +0.000 N 
ATOM      4  H   UNL     1      46.995   6.311  12.831  0.00  0.00    +0.000 HD
ENDROOT
BRANCH   2   5
ATOM      5  C   UNL     1      47.596   8.807  12.850  0.00  0.00    +0.000 A 
ATOM      6  C   UNL     1      47.780   9.949  12.082  0.00  0.00    +0.000 A 
ATOM      7  S   UNL     1      49.398  10.487  12.043  0.00  0.00    +0.000 S 
ATOM      8  C   UNL     1      49.898   9.232  13.080  0.00  0.00    +0.000 A 
ATOM      9  N   UNL     1      51.190   9.137  13.489  0.00  0.00    +0.000 NA
ATOM     10  C   UNL     1      51.417   8.163  14.309  0.00  0.00    +0.000 A 
ATOM     11  N   UNL     1      50.475   7.267  14.737  0.00  0.00    +0.000 N 
ATOM     12  C   UNL     1      49.181   7.272  14.278  0.00  0.00    +0.000 A 
ATOM     13  O   UNL     1      48.405   6.358  14.556  0.00  0.00    +0.000 OA
ATOM     14  C   UNL     1      48.855   8.387  13.414  0.00  0.00    +0.000 A 
ATOM     15  H   UNL     1      50.729   6.500  15.344  0.00  0.00    +0.000 HD
ENDBRANCH   2   5
BRANCH   3  16
ATOM     16  C   UNL     1      44.905   6.175  12.958  0.00  0.00    +0.000 C 
BRANCH  16  17
ATOM     17  C   UNL     1      44.774   5.056  11.958  0.00  0.00    +0.000 A 
ATOM     18  C   UNL     1      44.081   5.263  10.759  0.00  0.00    +0.000 A 
ATOM     19  C   UNL     1      44.005   4.256   9.794  0.00  0.00    +0.000 A 
ATOM     20  C   UNL     1      44.614   3.012  10.013  0.00  0.00    +0.000 A 
ATOM     21  C   UNL     1      45.278   2.793  11.228  0.00  0.00    +0.000 A 
ATOM     22  C   UNL     1      45.346   3.800  12.197  0.00  0.00    +0.000 A 
BRANCH  20  23
ATOM     23  C   UNL     1      44.586   1.943   8.945  0.00  0.00    +0.000 C 
BRANCH  23  24
ATOM     24  C   UNL     1      45.731   2.038   7.971  0.00  0.00    +0.000 A 
ATOM     25  C   UNL     1      45.901   3.153   7.145  0.00  0.00    +0.000 A 
ATOM     26  C   UNL     1      46.935   3.172   6.212  0.00  0.00    +0.000 A 
ATOM     27  C   UNL     1      47.778   2.075   6.143  0.00  0.00    +0.000 A 
ATOM     28  N   UNL     1      47.662   0.990   6.937  0.00  0.00    +0.000 NA
ATOM     29  C   UNL     1      46.642   0.994   7.826  0.00  0.00    +0.000 A 
ENDBRANCH  23  24
ENDBRANCH  20  23
ENDBRANCH  16  17
ENDBRANCH   3  16
TORSDOF 5
ENDMDL
MODEL 5
REMARK VINA RESULT:    -7.778      2.269      3.648
REMARK INTER + INTRA:         -10.601
REMARK INTER:                  -9.824
REMARK INTRA:                  -0.777
REMARK UNBOUND:                -0.550
REMARK  Name = 
REMARK  5 active torsions:
REMARK  status: ('A' for Active; 'I' for Inactive)
REMARK    1  A    between atoms: C_2  and  C_18
REMARK    2  A    between atoms: N_3  and  C_4
REMARK    3  A    between atoms: C_4  and  C_5
REMARK    4  A    between atoms: C_8  and  C_9
REMARK    5  A    between atoms: C_9  and  C_10
REMARK                            x       y       z     vdW  Elec       q    Type
REMARK                         _______ _______ _______ _____ _____    ______ ____
ROOT
ATOM      1  O   UNL     1      47.959   5.047  14.844  0.00  0.00    +0.000 OA
ATOM      2  C   UNL     1      47.970   6.166  14.339  0.00  0.00    +0.000 C 
ATOM      3  N   UNL     1      46.867   6.718  13.740  0.00  0.00    +0.000 N 
ATOM      4  H   UNL     1      46.968   7.562  13.188  0.00  0.00    +0.000 HD
ENDROOT
BRANCH   2   5
ATOM      5  C   UNL     1      49.166   7.015  14.398  0.00  0.00    +0.000 A 
ATOM      6  C   UNL     1      49.783   7.252  15.619  0.00  0.00    +0.000 A 
ATOM      7  S   UNL     1      51.168   8.241  15.499  0.00  0.00    +0.000 S 
ATOM      8  C   UNL     1      51.007   8.354  13.807  0.00  0.00    +0.000 A 
ATOM      9  N   UNL     1      51.914   9.040  13.063  0.00  0.00    +0.000 NA
ATOM     10  C   UNL     1      51.693   9.005  11.790  0.00  0.00    +0.000 A 
ATOM     11  N   UNL     1      50.636   8.366  11.198  0.00  0.00    +0.000 N 
ATOM     12  C   UNL     1      49.648   7.740  11.918  0.00  0.00    +0.000 A 
ATOM     13  O   UNL     1      48.632   7.319  11.367  0.00  0.00    +0.000 OA
ATOM     14  C   UNL     1      49.887   7.687  13.345  0.00  0.00    +0.000 A 
ATOM     15  H   UNL     1      50.495   8.416  10.199  0.00  0.00    +0.000 HD
ENDBRANCH   2   5
BRANCH   3  16
ATOM     16  C   UNL     1      45.631   5.997  13.591  0.00  0.00    +0.000 C 
BRANCH  16  17
ATOM     17  C   UNL     1      45.463   5.437  12.202  0.00  0.00    +0.000 A 
ATOM     18  C   UNL     1      44.773   4.235  12.008  0.00  0.00    +0.000 A 
ATOM     19  C   UNL     1      44.553   3.737  10.722  0.00  0.00    +0.000 A 
ATOM     20  C   UNL     1      45.032   4.427   9.599  0.00  0.00    +0.000 A 
ATOM     21  C   UNL     1      45.754   5.613   9.796  0.00  0.00    +0.000 A 
ATOM     22  C   UNL     1      45.979   6.106  11.085  0.00  0.00    +0.000 A 
BRANCH  20  23
ATOM     23  C   UNL     1      44.743   3.921   8.204  0.00  0.00    +0.000 C 
BRANCH  23  24
ATOM     24  C   UNL     1      45.793   2.977   7.679  0.00  0.00    +0.000 A 
ATOM     25  C   UNL     1      46.580   3.299   6.569  0.00  0.00    +0.000 A 
ATOM     26  C   UNL     1      47.493   2.370   6.076  0.00  0.00    +0.000 A 
ATOM     27  C   UNL     1      47.599   1.148   6.718  0.00  0.00    +0.000 A 
ATOM     28  N   UNL     1      46.875   0.807   7.804  0.00  0.00    +0.000 NA
ATOM     29  C   UNL     1      45.988   1.724   8.255  0.00  0.00    +0.000 A 
ENDBRANCH  23  24
ENDBRANCH  20  23
ENDBRANCH  16  17
ENDBRANCH   3  16
TORSDOF 5
ENDMDL
MODEL 6
REMARK VINA RESULT:    -7.760      4.068      9.484
REMARK INTER + INTRA:         -10.578
REMARK INTER:                  -9.631
REMARK INTRA:                  -0.947
REMARK UNBOUND:                -0.550
REMARK  Name = 
REMARK  5 active torsions:
REMARK  status: ('A' for Active; 'I' for Inactive)
REMARK    1  A    between atoms: C_2  and  C_18
REMARK    2  A    between atoms: N_3  and  C_4
REMARK    3  A    between atoms: C_4  and  C_5
REMARK    4  A    between atoms: C_8  and  C_9
REMARK    5  A    between atoms: C_9  and  C_10
REMARK                            x       y       z     vdW  Elec       q    Type
REMARK                         _______ _______ _______ _____ _____    ______ ____
ROOT
ATOM      1  O   UNL     1      47.255   3.147  13.992  0.00  0.00    +0.000 OA
ATOM      2  C   UNL     1      46.802   4.184  14.468  0.00  0.00    +0.000 C 
ATOM      3  N   UNL     1      46.777   4.430  15.816  0.00  0.00    +0.000 N 
ATOM      4  H   UNL     1      46.239   5.214  16.171  0.00  0.00    +0.000 HD
ENDROOT
BRANCH   2   5
ATOM      5  C   UNL     1      46.305   5.262  13.605  0.00  0.00    +0.000 A 
ATOM      6  C   UNL     1      47.107   6.366  13.349  0.00  0.00    +0.000 A 
ATOM      7  S   UNL     1      46.380   7.509  12.312  0.00  0.00    +0.000 S 
ATOM      8  C   UNL     1      44.984   6.548  12.143  0.00  0.00    +0.000 A 
ATOM      9  N   UNL     1      43.962   6.937  11.337  0.00  0.00    +0.000 NA
ATOM     10  C   UNL     1      42.987   6.090  11.269  0.00  0.00    +0.000 A 
ATOM     11  N   UNL     1      42.934   4.904  11.951  0.00  0.00    +0.000 N 
ATOM     12  C   UNL     1      43.901   4.517  12.846  0.00  0.00    +0.000 A 
ATOM     13  O   UNL     1      43.745   3.528  13.561  0.00  0.00    +0.000 OA
ATOM     14  C   UNL     1      45.051   5.394  12.903  0.00  0.00    +0.000 A 
ATOM     15  H   UNL     1      42.121   4.308  11.890  0.00  0.00    +0.000 HD
ENDBRANCH   2   5
BRANCH   3  16
ATOM     16  C   UNL     1      47.212   3.458  16.784  0.00  0.00    +0.000 C 
BRANCH  16  17
ATOM     17  C   UNL     1      48.672   3.608  17.123  0.00  0.00    +0.000 A 
ATOM     18  C   UNL     1      49.494   2.478  17.202  0.00  0.00    +0.000 A 
ATOM     19  C   UNL     1      50.863   2.605  17.452  0.00  0.00    +0.000 A 
ATOM     20  C   UNL     1      51.438   3.870  17.640  0.00  0.00    +0.000 A 
ATOM     21  C   UNL     1      50.608   4.999  17.596  0.00  0.00    +0.000 A 
ATOM     22  C   UNL     1      49.236   4.869  17.353  0.00  0.00    +0.000 A 
BRANCH  20  23
ATOM     23  C   UNL     1      52.928   4.014  17.850  0.00  0.00    +0.000 C 
BRANCH  23  24
ATOM     24  C   UNL     1      53.385   3.579  19.218  0.00  0.00    +0.000 A 
ATOM     25  C   UNL     1      53.051   4.301  20.367  0.00  0.00    +0.000 A 
ATOM     26  C   UNL     1      53.549   3.902  21.605  0.00  0.00    +0.000 A 
ATOM     27  C   UNL     1      54.362   2.783  21.656  0.00  0.00    +0.000 A 
ATOM     28  N   UNL     1      54.690   2.045  20.574  0.00  0.00    +0.000 NA
ATOM     29  C   UNL     1      54.201   2.463  19.384  0.00  0.00    +0.000 A 
ENDBRANCH  23  24
ENDBRANCH  20  23
ENDBRANCH  16  17
ENDBRANCH   3  16
TORSDOF 5
ENDMDL
MODEL 7
REMARK VINA RESULT:    -7.566      2.348      3.026
REMARK INTER + INTRA:         -10.327
REMARK INTER:                  -9.647
REMARK INTRA:                  -0.681
REMARK UNBOUND:                -0.550
REMARK  Name = 
REMARK  5 active torsions:
REMARK  status: ('A' for Active; 'I' for Inactive)
REMARK    1  A    between atoms: C_2  and  C_18
REMARK    2  A    between atoms: N_3  and  C_4
REMARK    3  A    between atoms: C_4  and  C_5
REMARK    4  A    between atoms: C_8  and  C_9
REMARK    5  A    between atoms: C_9  and  C_10
REMARK                            x       y       z     vdW  Elec       q    Type
REMARK                         _______ _______ _______ _____ _____    ______ ____
ROOT
ATOM      1  O   UNL     1      49.522   7.142  15.703  0.00  0.00    +0.000 OA
ATOM      2  C   UNL     1      48.623   6.328  15.888  0.00  0.00    +0.000 C 
ATOM      3  N   UNL     1      47.645   6.081  14.959  0.00  0.00    +0.000 N 
ATOM      4  H   UNL     1      46.831   5.536  15.222  0.00  0.00    +0.000 HD
ENDROOT
BRANCH   2   5
ATOM      5  C   UNL     1      48.572   5.516  17.109  0.00  0.00    +0.000 A 
ATOM      6  C   UNL     1      48.786   4.146  17.036  0.00  0.00    +0.000 A 
ATOM      7  S   UNL     1      48.712   3.365  18.551  0.00  0.00    +0.000 S 
ATOM      8  C   UNL     1      48.426   4.837  19.357  0.00  0.00    +0.000 A 
ATOM      9  N   UNL     1      48.305   4.881  20.710  0.00  0.00    +0.000 NA
ATOM     10  C   UNL     1      48.136   6.069  21.190  0.00  0.00    +0.000 A 
ATOM     11  N   UNL     1      48.055   7.211  20.438  0.00  0.00    +0.000 N 
ATOM     12  C   UNL     1      48.080   7.201  19.066  0.00  0.00    +0.000 A 
ATOM     13  O   UNL     1      47.842   8.220  18.419  0.00  0.00    +0.000 OA
ATOM     14  C   UNL     1      48.342   5.903  18.480  0.00  0.00    +0.000 A 
ATOM     15  H   UNL     1      47.875   8.105  20.873  0.00  0.00    +0.000 HD
ENDBRANCH   2   5
BRANCH   3  16
ATOM     16  C   UNL     1      47.556   6.814  13.724  0.00  0.00    +0.000 C 
BRANCH  16  17
ATOM     17  C   UNL     1      46.678   6.122  12.714  0.00  0.00    +0.000 A 
ATOM     18  C   UNL     1      46.581   6.620  11.409  0.00  0.00    +0.000 A 
ATOM     19  C   UNL     1      45.822   5.952  10.445  0.00  0.00    +0.000 A 
ATOM     20  C   UNL     1      45.133   4.775  10.769  0.00  0.00    +0.000 A 
ATOM     21  C   UNL     1      45.202   4.296  12.085  0.00  0.00    +0.000 A 
ATOM     22  C   UNL     1      45.956   4.970  13.051  0.00  0.00    +0.000 A 
BRANCH  20  23
ATOM     23  C   UNL     1      44.362   4.019   9.711  0.00  0.00    +0.000 C 
BRANCH  23  24
ATOM     24  C   UNL     1      45.244   3.271   8.746  0.00  0.00    +0.000 A 
ATOM     25  C   UNL     1      45.506   1.906   8.900  0.00  0.00    +0.000 A 
ATOM     26  C   UNL     1      46.381   1.267   8.024  0.00  0.00    +0.000 A 
ATOM     27  C   UNL     1      46.960   2.014   7.012  0.00  0.00    +0.000 A 
ATOM     28  N   UNL     1      46.716   3.326   6.816  0.00  0.00    +0.000 NA
ATOM     29  C   UNL     1      45.871   3.924   7.688  0.00  0.00    +0.000 A 
ENDBRANCH  23  24
ENDBRANCH  20  23
ENDBRANCH  16  17
ENDBRANCH   3  16
TORSDOF 5
ENDMDL
MODEL 8
REMARK VINA RESULT:    -7.210      4.253      9.520
REMARK INTER + INTRA:          -9.867
REMARK INTER:                  -8.716
REMARK INTRA:                  -1.151
REMARK UNBOUND:                -0.550
REMARK  Name = 
REMARK  5 active torsions:
REMARK  status: ('A' for Active; 'I' for Inactive)
REMARK    1  A    between atoms: C_2  and  C_18
REMARK    2  A    between atoms: N_3  and  C_4
REMARK    3  A    between atoms: C_4  and  C_5
REMARK    4  A    between atoms: C_8  and  C_9
REMARK    5  A    between atoms: C_9  and  C_10
REMARK                            x       y       z     vdW  Elec       q    Type
REMARK                         _______ _______ _______ _____ _____    ______ ____
ROOT
ATOM      1  O   UNL     1      47.335   3.137  14.046  0.00  0.00    +0.000 OA
ATOM      2  C   UNL     1      46.949   4.194  14.537  0.00  0.00    +0.000 C 
ATOM      3  N   UNL     1      46.964   4.431  15.886  0.00  0.00    +0.000 N 
ATOM      4  H   UNL     1      46.477   5.240  16.258  0.00  0.00    +0.000 HD
ENDROOT
BRANCH   2   5
ATOM      5  C   UNL     1      46.495   5.304  13.691  0.00  0.00    +0.000 A 
ATOM      6  C   UNL     1      45.279   5.211  13.025  0.00  0.00    +0.000 A 
ATOM      7  S   UNL     1      44.901   6.597  12.106  0.00  0.00    +0.000 S 
ATOM      8  C   UNL     1      46.332   7.379  12.595  0.00  0.00    +0.000 A 
ATOM      9  N   UNL     1      46.610   8.646  12.190  0.00  0.00    +0.000 NA
ATOM     10  C   UNL     1      47.707   9.131  12.674  0.00  0.00    +0.000 A 
ATOM     11  N   UNL     1      48.559   8.455  13.506  0.00  0.00    +0.000 N 
ATOM     12  C   UNL     1      48.363   7.144  13.866  0.00  0.00    +0.000 A 
ATOM     13  O   UNL     1      49.227   6.518  14.479  0.00  0.00    +0.000 OA
ATOM     14  C   UNL     1      47.111   6.578  13.411  0.00  0.00    +0.000 A 
ATOM     15  H   UNL     1      49.425   8.876  13.812  0.00  0.00    +0.000 HD
ENDBRANCH   2   5
BRANCH   3  16
ATOM     16  C   UNL     1      47.364   3.430  16.839  0.00  0.00    +0.000 C 
BRANCH  16  17
ATOM     17  C   UNL     1      48.829   3.521  17.178  0.00  0.00    +0.000 A 
ATOM     18  C   UNL     1      49.629   2.372  17.151  0.00  0.00    +0.000 A 
ATOM     19  C   UNL     1      51.001   2.451  17.400  0.00  0.00    +0.000 A 
ATOM     20  C   UNL     1      51.602   3.682  17.694  0.00  0.00    +0.000 A 
ATOM     21  C   UNL     1      50.795   4.827  17.755  0.00  0.00    +0.000 A 
ATOM     22  C   UNL     1      49.420   4.745  17.513  0.00  0.00    +0.000 A 
BRANCH  20  23
ATOM     23  C   UNL     1      53.097   3.778  17.903  0.00  0.00    +0.000 C 
BRANCH  23  24
ATOM     24  C   UNL     1      53.532   3.402  19.295  0.00  0.00    +0.000 A 
ATOM     25  C   UNL     1      53.174   4.169  20.408  0.00  0.00    +0.000 A 
ATOM     26  C   UNL     1      53.654   3.823  21.669  0.00  0.00    +0.000 A 
ATOM     27  C   UNL     1      54.470   2.711  21.780  0.00  0.00    +0.000 A 
ATOM     28  N   UNL     1      54.820   1.931  20.735  0.00  0.00    +0.000 NA
ATOM     29  C   UNL     1      54.349   2.297  19.520  0.00  0.00    +0.000 A 
ENDBRANCH  23  24
ENDBRANCH  20  23
ENDBRANCH  16  17
ENDBRANCH   3  16
TORSDOF 5
ENDMDL
