MODEL 1
REMARK VINA RESULT:    -8.446      0.000      0.000
REMARK INTER + INTRA:         -12.949
REMARK INTER:                 -12.150
REMARK INTRA:                  -0.799
REMARK UNBOUND:                -0.799
REMARK  Name = 
REMARK  8 active torsions:
REMARK  status: ('A' for Active; 'I' for Inactive)
REMARK    1  A    between atoms: N_1  and  C_2
REMARK    2  A    between atoms: C_2  and  C_3
REMARK    3  A    between atoms: C_2  and  C_19
REMARK    4  A    between atoms: C_3  and  C_4
REMARK    5  A    between atoms: C_7  and  C_8
REMARK    6  A    between atoms: C_8  and  N_9
REMARK    7  A    between atoms: N_9  and  C_10
REMARK    8  A    between atoms: C_10  and  C_11
REMARK                            x       y       z     vdW  Elec       q    Type
REMARK                         _______ _______ _______ _____ _____    ______ ____
ROOT
ATOM      1  C   UNL     1      47.913   5.362  15.507  0.00  0.00    +0.000 C 
ENDROOT
BRANCH   1   2
ATOM      2  C   UNL     1      47.020   4.959  14.359  0.00  0.00    +0.000 A 
ATOM      3  C   UNL     1      46.322   5.935  13.633  0.00  0.00    +0.000 A 
ATOM      4  C   UNL     1      45.510   5.572  12.557  0.00  0.00    +0.000 A 
ATOM      5  C   UNL     1      45.392   4.229  12.174  0.00  0.00    +0.000 A 
ATOM      6  C   UNL     1      46.083   3.256  12.909  0.00  0.00    +0.000 A 
ATOM      7  C   UNL     1      46.885   3.616  13.995  0.00  0.00    +0.000 A 
BRANCH   5   8
ATOM      8  C   UNL     1      44.549   3.831  10.982  0.00  0.00    +0.000 C 
BRANCH   8   9
ATOM      9  N   UNL     1      44.805   2.440  10.618  0.00  0.00    +0.000 NA
ATOM     10  H   UNL     1      44.260   1.839  11.238  0.00  0.00    +0.000 HD
BRANCH   9  11
ATOM     11  C   UNL     1      44.397   2.146   9.238  0.00  0.00    +0.000 C 
BRANCH  11  12
ATOM     12  C   UNL     1      45.582   2.178   8.287  0.00  0.00    +0.000 A 
ATOM     13  C   UNL     1      45.928   3.359   7.626  0.00  0.00    +0.000 A 
ATOM     14  C   UNL     1      47.050   3.368   6.801  0.00  0.00    +0.000 A 
ATOM     15  C   UNL     1      47.788   2.203   6.645  0.00  0.00    +0.000 A 
ATOM     16  C   UNL     1      47.372   1.070   7.324  0.00  0.00    +0.000 A 
ATOM     17  N   UNL     1      46.294   1.032   8.141  0.00  0.00    +0.000 NA
ENDBRANCH  11  12
ENDBRANCH   9  11
ENDBRANCH   8   9
ENDBRANCH   5   8
ENDBRANCH   1   2
BRANCH   1  18
ATOM     18  C   UNL     1      47.915   4.374  16.700  0.00  0.00    +0.000 C 
BRANCH  18  19
ATOM     19  C   UNL     1      49.251   4.372  17.413  0.00  0.00    +0.000 A 
ATOM     20  C   UNL     1      49.718   5.429  18.179  0.00  0.00    +0.000 A 
ATOM     21  S   UNL     1      51.237   5.117  18.900  0.00  0.00    +0.000 S 
ATOM     22  C   UNL     1      51.318   3.564  18.206  0.00  0.00    +0.000 A 
ATOM     23  N   UNL     1      52.372   2.736  18.440  0.00  0.00    +0.000 NA
ATOM     24  C   UNL     1      52.288   1.591  17.848  0.00  0.00    +0.000 A 
ATOM     25  N   UNL     1      51.252   1.195  17.039  0.00  0.00    +0.000 N 
ATOM     26  C   UNL     1      50.190   2.015  16.732  0.00  0.00    +0.000 A 
ATOM     27  O   UNL     1      49.324   1.660  15.939  0.00  0.00    +0.000 OA
ATOM     28  C   UNL     1      50.218   3.296  17.415  0.00  0.00    +0.000 A 
ATOM     29  H   UNL     1      51.257   0.294  16.588  0.00  0.00    +0.000 HD
ENDBRANCH  18  19
BRANCH  18  30
ATOM     30  N   UNL     1      46.888   4.639  17.713  0.00  0.00    +0.000 NA
ATOM     31  H   UNL     1      46.374   5.475  17.435  0.00  0.00    +0.000 HD
ATOM     32  H   UNL     1      47.366   4.914  18.578  0.00  0.00    +0.000 HD
ENDBRANCH  18  30
ENDBRANCH   1  18
TORSDOF 8
ENDMDL
MODEL 2
REMARK VINA RESULT:    -7.958      4.839      5.532
REMARK INTER + INTRA:         -12.247
REMARK INTER:                 -11.241
REMARK INTRA:                  -1.006
REMARK UNBOUND:                -0.799
REMARK  Name = 
REMARK  8 active torsions:
REMARK  status: ('A' for Active; 'I' for Inactive)
REMARK    1  A    between atoms: N_1  and  C_2
REMARK    2  A    between atoms: C_2  and  C_3
REMARK    3  A    between atoms: C_2  and  C_19
REMARK    4  A    between atoms: C_3  and  C_4
REMARK    5  A    between atoms: C_7  and  C_8
REMARK    6  A    between atoms: C_8  and  N_9
REMARK    7  A    between atoms: N_9  and  C_10
REMARK    8  A    between atoms: C_10  and  C_11
REMARK                            x       y       z     vdW  Elec       q    Type
REMARK                         _______ _______ _______ _____ _____    ______ ____
ROOT
ATOM      1  C   UNL     1      45.572   8.454  12.711  0.00  0.00    +0.000 C 
ENDROOT
BRANCH   1   2
ATOM      2  C   UNL     1      45.062   7.069  12.393  0.00  0.00    +0.000 A 
ATOM      3  C   UNL     1      44.040   6.895  11.450  0.00  0.00    +0.000 A 
ATOM      4  C   UNL     1      43.577   5.616  11.135  0.00  0.00    +0.000 A 
ATOM      5  C   UNL     1      44.139   4.484  11.742  0.00  0.00    +0.000 A 
ATOM      6  C   UNL     1      45.154   4.665  12.692  0.00  0.00    +0.000 A 
ATOM      7  C   UNL     1      45.608   5.945  13.019  0.00  0.00    +0.000 A 
BRANCH   5   8
ATOM      8  C   UNL     1      43.675   3.092  11.375  0.00  0.00    +0.000 C 
BRANCH   8   9
ATOM      9  N   UNL     1      44.730   2.371  10.668  0.00  0.00    +0.000 NA
ATOM     10  H   UNL     1      44.898   1.489  11.154  0.00  0.00    +0.000 HD
BRANCH   9  11
ATOM     11  C   UNL     1      44.354   2.056   9.285  0.00  0.00    +0.000 C 
BRANCH  11  12
ATOM     12  C   UNL     1      45.542   2.166   8.344  0.00  0.00    +0.000 A 
ATOM     13  C   UNL     1      45.860   3.387   7.746  0.00  0.00    +0.000 A 
ATOM     14  C   UNL     1      46.986   3.467   6.929  0.00  0.00    +0.000 A 
ATOM     15  C   UNL     1      47.755   2.330   6.719  0.00  0.00    +0.000 A 
ATOM     16  C   UNL     1      47.364   1.154   7.338  0.00  0.00    +0.000 A 
ATOM     17  N   UNL     1      46.284   1.047   8.145  0.00  0.00    +0.000 NA
ENDBRANCH  11  12
ENDBRANCH   9  11
ENDBRANCH   8   9
ENDBRANCH   5   8
ENDBRANCH   1   2
BRANCH   1  18
ATOM     18  C   UNL     1      46.986   8.491  13.343  0.00  0.00    +0.000 C 
BRANCH  18  19
ATOM     19  C   UNL     1      47.949   9.296  12.497  0.00  0.00    +0.000 A 
ATOM     20  C   UNL     1      47.717  10.602  12.096  0.00  0.00    +0.000 A 
ATOM     21  S   UNL     1      49.005  11.266  11.188  0.00  0.00    +0.000 S 
ATOM     22  C   UNL     1      49.909   9.826  11.300  0.00  0.00    +0.000 A 
ATOM     23  N   UNL     1      51.146   9.720  10.744  0.00  0.00    +0.000 NA
ATOM     24  C   UNL     1      51.707   8.569  10.916  0.00  0.00    +0.000 A 
ATOM     25  N   UNL     1      51.146   7.511  11.586  0.00  0.00    +0.000 N 
ATOM     26  C   UNL     1      49.878   7.553  12.121  0.00  0.00    +0.000 A 
ATOM     27  O   UNL     1      49.376   6.562  12.641  0.00  0.00    +0.000 OA
ATOM     28  C   UNL     1      49.229   8.845  11.994  0.00  0.00    +0.000 A 
ATOM     29  H   UNL     1      51.628   6.630  11.667  0.00  0.00    +0.000 HD
ENDBRANCH  18  19
BRANCH  18  30
ATOM     30  N   UNL     1      47.034   9.051  14.699  0.00  0.00    +0.000 NA
ATOM     31  H   UNL     1      46.163   8.813  15.173  0.00  0.00    +0.000 HD
ATOM     32  H   UNL     1      47.003  10.073  14.614  0.00  0.00    +0.000 HD
ENDBRANCH  18  30
ENDBRANCH   1  18
TORSDOF 8
ENDMDL
MODEL 3
REMARK VINA RESULT:    -7.952      1.977      2.607
REMARK INTER + INTRA:         -12.238
REMARK INTER:                 -11.180
REMARK INTRA:                  -1.058
REMARK UNBOUND:                -0.799
REMARK  Name = 
REMARK  8 active torsions:
REMARK  status: ('A' for Active; 'I' for Inactive)
REMARK    1  A    between atoms: N_1  and  C_2
REMARK    2  A    between atoms: C_2  and  C_3
REMARK    3  A    between atoms: C_2  and  C_19
REMARK    4  A    between atoms: C_3  and  C_4
REMARK    5  A    between atoms: C_7  and  C_8
REMARK    6  A    between atoms: C_8  and  N_9
REMARK    7  A    between atoms: N_9  and  C_10
REMARK    8  A    between atoms: C_10  and  C_11
REMARK                            x       y       z     vdW  Elec       q    Type
REMARK                         _______ _______ _______ _____ _____    ______ ____
ROOT
ATOM      1  C   UNL     1      48.260   6.731  13.184  0.00  0.00    +0.000 C 
ENDROOT
BRANCH   1   2
ATOM      2  C   UNL     1      47.055   6.029  12.606  0.00  0.00    +0.000 A 
ATOM      3  C   UNL     1      46.477   4.949  13.288  0.00  0.00    +0.000 A 
ATOM      4  C   UNL     1      45.350   4.307  12.771  0.00  0.00    +0.000 A 
ATOM      5  C   UNL     1      44.768   4.743  11.572  0.00  0.00    +0.000 A 
ATOM      6  C   UNL     1      45.357   5.816  10.890  0.00  0.00    +0.000 A 
ATOM      7  C   UNL     1      46.493   6.450  11.399  0.00  0.00    +0.000 A 
BRANCH   5   8
ATOM      8  C   UNL     1      43.521   4.082  11.026  0.00  0.00    +0.000 C 
BRANCH   8   9
ATOM      9  N   UNL     1      43.744   3.621   9.659  0.00  0.00    +0.000 NA
ATOM     10  H   UNL     1      44.295   4.327   9.167  0.00  0.00    +0.000 HD
BRANCH   9  11
ATOM     11  C   UNL     1      44.493   2.360   9.617  0.00  0.00    +0.000 C 
BRANCH  11  12
ATOM     12  C   UNL     1      45.488   2.339   8.468  0.00  0.00    +0.000 A 
ATOM     13  C   UNL     1      45.670   3.471   7.670  0.00  0.00    +0.000 A 
ATOM     14  C   UNL     1      46.626   3.437   6.658  0.00  0.00    +0.000 A 
ATOM     15  C   UNL     1      47.364   2.277   6.458  0.00  0.00    +0.000 A 
ATOM     16  C   UNL     1      47.113   1.194   7.283  0.00  0.00    +0.000 A 
ATOM     17  N   UNL     1      46.200   1.199   8.282  0.00  0.00    +0.000 NA
ENDBRANCH  11  12
ENDBRANCH   9  11
ENDBRANCH   8   9
ENDBRANCH   5   8
ENDBRANCH   1   2
BRANCH   1  18
ATOM     18  C   UNL     1      48.123   7.128  14.675  0.00  0.00    +0.000 C 
BRANCH  18  19
ATOM     19  C   UNL     1      49.406   6.867  15.436  0.00  0.00    +0.000 A 
ATOM     20  C   UNL     1      50.588   7.555  15.214  0.00  0.00    +0.000 A 
ATOM     21  S   UNL     1      51.853   7.074  16.259  0.00  0.00    +0.000 S 
ATOM     22  C   UNL     1      50.860   5.928  17.036  0.00  0.00    +0.000 A 
ATOM     23  N   UNL     1      51.325   5.167  18.063  0.00  0.00    +0.000 NA
ATOM     24  C   UNL     1      50.454   4.348  18.552  0.00  0.00    +0.000 A 
ATOM     25  N   UNL     1      49.162   4.213  18.107  0.00  0.00    +0.000 N 
ATOM     26  C   UNL     1      48.662   4.924  17.039  0.00  0.00    +0.000 A 
ATOM     27  O   UNL     1      47.529   4.718  16.616  0.00  0.00    +0.000 OA
ATOM     28  C   UNL     1      49.592   5.893  16.490  0.00  0.00    +0.000 A 
ATOM     29  H   UNL     1      48.537   3.538  18.518  0.00  0.00    +0.000 HD
ENDBRANCH  18  19
BRANCH  18  30
ATOM     30  N   UNL     1      47.766   8.532  14.903  0.00  0.00    +0.000 NA
ATOM     31  H   UNL     1      47.157   8.577  15.720  0.00  0.00    +0.000 HD
ATOM     32  H   UNL     1      47.166   8.831  14.126  0.00  0.00    +0.000 HD
ENDBRANCH  18  30
ENDBRANCH   1  18
TORSDOF 8
ENDMDL
MODEL 4
REMARK VINA RESULT:    -7.678      1.012      1.251
REMARK INTER + INTRA:         -11.843
REMARK INTER:                 -11.105
REMARK INTRA:                  -0.739
REMARK UNBOUND:                -0.799
REMARK  Name = 
REMARK  8 active torsions:
REMARK  status: ('A' for Active; 'I' for Inactive)
REMARK    1  A    between atoms: N_1  and  C_2
REMARK    2  A    between atoms: C_2  and  C_3
REMARK    3  A    between atoms: C_2  and  C_19
REMARK    4  A    between atoms: C_3  and  C_4
REMARK    5  A    between atoms: C_7  and  C_8
REMARK    6  A    between atoms: C_8  and  N_9
REMARK    7  A    between atoms: N_9  and  C_10
REMARK    8  A    between atoms: C_10  and  C_11
REMARK                            x       y       z     vdW  Elec       q    Type
REMARK                         _______ _______ _______ _____ _____    ______ ____
ROOT
ATOM      1  C   UNL     1      48.749   5.811  16.298  0.00  0.00    +0.000 C 
ENDROOT
BRANCH   1   2
ATOM      2  C   UNL     1      47.840   5.673  15.101  0.00  0.00    +0.000 A 
ATOM      3  C   UNL     1      47.833   6.659  14.105  0.00  0.00    +0.000 A 
ATOM      4  C   UNL     1      47.010   6.529  12.985  0.00  0.00    +0.000 A 
ATOM      5  C   UNL     1      46.191   5.402  12.829  0.00  0.00    +0.000 A 
ATOM      6  C   UNL     1      46.194   4.424  13.834  0.00  0.00    +0.000 A 
ATOM      7  C   UNL     1      47.006   4.560  14.962  0.00  0.00    +0.000 A 
BRANCH   5   8
ATOM      8  C   UNL     1      45.328   5.230  11.598  0.00  0.00    +0.000 C 
BRANCH   8   9
ATOM      9  N   UNL     1      44.885   3.844  11.474  0.00  0.00    +0.000 NA
ATOM     10  H   UNL     1      44.286   3.625  12.272  0.00  0.00    +0.000 HD
BRANCH   9  11
ATOM     11  C   UNL     1      44.102   3.622  10.253  0.00  0.00    +0.000 C 
BRANCH  11  12
ATOM     12  C   UNL     1      44.976   3.131   9.111  0.00  0.00    +0.000 A 
ATOM     13  C   UNL     1      45.383   4.009   8.104  0.00  0.00    +0.000 A 
ATOM     14  C   UNL     1      46.226   3.541   7.099  0.00  0.00    +0.000 A 
ATOM     15  C   UNL     1      46.630   2.212   7.115  0.00  0.00    +0.000 A 
ATOM     16  C   UNL     1      46.171   1.403   8.140  0.00  0.00    +0.000 A 
ATOM     17  N   UNL     1      45.361   1.830   9.136  0.00  0.00    +0.000 NA
ENDBRANCH  11  12
ENDBRANCH   9  11
ENDBRANCH   8   9
ENDBRANCH   5   8
ENDBRANCH   1   2
BRANCH   1  18
ATOM     18  C   UNL     1      48.710   4.613  17.280  0.00  0.00    +0.000 C 
BRANCH  18  19
ATOM     19  C   UNL     1      50.076   4.340  17.873  0.00  0.00    +0.000 A 
ATOM     20  C   UNL     1      50.757   5.232  18.685  0.00  0.00    +0.000 A 
ATOM     21  S   UNL     1      52.255   4.626  19.242  0.00  0.00    +0.000 S 
ATOM     22  C   UNL     1      52.041   3.156  18.411  0.00  0.00    +0.000 A 
ATOM     23  N   UNL     1      52.966   2.160  18.480  0.00  0.00    +0.000 NA
ATOM     24  C   UNL     1      52.662   1.105  17.799  0.00  0.00    +0.000 A 
ATOM     25  N   UNL     1      51.521   0.952  17.050  0.00  0.00    +0.000 N 
ATOM     26  C   UNL     1      50.582   1.949  16.909  0.00  0.00    +0.000 A 
ATOM     27  O   UNL     1      49.616   1.809  16.165  0.00  0.00    +0.000 OA
ATOM     28  C   UNL     1      50.859   3.136  17.697  0.00  0.00    +0.000 A 
ATOM     29  H   UNL     1      51.353   0.111  16.523  0.00  0.00    +0.000 HD
ENDBRANCH  18  19
BRANCH  18  30
ATOM     30  N   UNL     1      47.779   4.773  18.402  0.00  0.00    +0.000 NA
ATOM     31  H   UNL     1      46.986   4.150  18.249  0.00  0.00    +0.000 HD
ATOM     32  H   UNL     1      47.375   5.714  18.339  0.00  0.00    +0.000 HD
ENDBRANCH  18  30
ENDBRANCH   1  18
TORSDOF 8
ENDMDL
MODEL 5
REMARK VINA RESULT:    -7.349      5.184      7.036
REMARK INTER + INTRA:         -11.370
REMARK INTER:                 -10.654
REMARK INTRA:                  -0.716
REMARK UNBOUND:                -0.799
REMARK  Name = 
REMARK  8 active torsions:
REMARK  status: ('A' for Active; 'I' for Inactive)
REMARK    1  A    between atoms: N_1  and  C_2
REMARK    2  A    between atoms: C_2  and  C_3
REMARK    3  A    between atoms: C_2  and  C_19
REMARK    4  A    between atoms: C_3  and  C_4
REMARK    5  A    between atoms: C_7  and  C_8
REMARK    6  A    between atoms: C_8  and  N_9
REMARK    7  A    between atoms: N_9  and  C_10
REMARK    8  A    between atoms: C_10  and  C_11
REMARK                            x       y       z     vdW  Elec       q    Type
REMARK                         _______ _______ _______ _____ _____    ______ ____
ROOT
ATOM      1  C   UNL     1      48.222   7.677  12.399  0.00  0.00    +0.000 C 
ENDROOT
BRANCH   1   2
ATOM      2  C   UNL     1      47.175   6.597  12.269  0.00  0.00    +0.000 A 
ATOM      3  C   UNL     1      46.288   6.604  11.182  0.00  0.00    +0.000 A 
ATOM      4  C   UNL     1      45.331   5.597  11.044  0.00  0.00    +0.000 A 
ATOM      5  C   UNL     1      45.252   4.554  11.977  0.00  0.00    +0.000 A 
ATOM      6  C   UNL     1      46.134   4.558  13.067  0.00  0.00    +0.000 A 
ATOM      7  C   UNL     1      47.083   5.573  13.214  0.00  0.00    +0.000 A 
BRANCH   5   8
ATOM      8  C   UNL     1      44.247   3.435  11.811  0.00  0.00    +0.000 C 
BRANCH   8   9
ATOM      9  N   UNL     1      44.734   2.451  10.849  0.00  0.00    +0.000 NA
ATOM     10  H   UNL     1      44.322   1.545  11.078  0.00  0.00    +0.000 HD
BRANCH   9  11
ATOM     11  C   UNL     1      44.344   2.783   9.473  0.00  0.00    +0.000 C 
BRANCH  11  12
ATOM     12  C   UNL     1      45.457   2.471   8.486  0.00  0.00    +0.000 A 
ATOM     13  C   UNL     1      45.971   3.472   7.660  0.00  0.00    +0.000 A 
ATOM     14  C   UNL     1      47.026   3.165   6.803  0.00  0.00    +0.000 A 
ATOM     15  C   UNL     1      47.529   1.871   6.781  0.00  0.00    +0.000 A 
ATOM     16  C   UNL     1      46.954   0.932   7.621  0.00  0.00    +0.000 A 
ATOM     17  N   UNL     1      45.938   1.202   8.473  0.00  0.00    +0.000 NA
ENDBRANCH  11  12
ENDBRANCH   9  11
ENDBRANCH   8   9
ENDBRANCH   5   8
ENDBRANCH   1   2
BRANCH   1  18
ATOM     18  C   UNL     1      47.734   8.966  13.107  0.00  0.00    +0.000 C 
BRANCH  18  19
ATOM     19  C   UNL     1      47.240   9.991  12.108  0.00  0.00    +0.000 A 
ATOM     20  C   UNL     1      45.900  10.259  11.876  0.00  0.00    +0.000 A 
ATOM     21  S   UNL     1      45.651  11.500  10.727  0.00  0.00    +0.000 S 
ATOM     22  C   UNL     1      47.326  11.713  10.501  0.00  0.00    +0.000 A 
ATOM     23  N   UNL     1      47.813  12.653   9.646  0.00  0.00    +0.000 NA
ATOM     24  C   UNL     1      49.102  12.697   9.585  0.00  0.00    +0.000 A 
ATOM     25  N   UNL     1      49.953  11.885  10.294  0.00  0.00    +0.000 N 
ATOM     26  C   UNL     1      49.508  10.887  11.131  0.00  0.00    +0.000 A 
ATOM     27  O   UNL     1      50.295  10.126  11.685  0.00  0.00    +0.000 OA
ATOM     28  C   UNL     1      48.064  10.834  11.268  0.00  0.00    +0.000 A 
ATOM     29  H   UNL     1      50.952  11.955  10.185  0.00  0.00    +0.000 HD
ENDBRANCH  18  19
BRANCH  18  30
ATOM     30  N   UNL     1      46.655   8.759  14.079  0.00  0.00    +0.000 NA
ATOM     31  H   UNL     1      46.729   7.807  14.438  0.00  0.00    +0.000 HD
ATOM     32  H   UNL     1      45.767   8.765  13.564  0.00  0.00    +0.000 HD
ENDBRANCH  18  30
ENDBRANCH   1  18
TORSDOF 8
ENDMDL
MODEL 6
REMARK VINA RESULT:    -7.312      1.760      2.491
REMARK INTER + INTRA:         -11.316
REMARK INTER:                 -10.646
REMARK INTRA:                  -0.671
REMARK UNBOUND:                -0.799
REMARK  Name = 
REMARK  8 active torsions:
REMARK  status: ('A' for Active; 'I' for Inactive)
REMARK    1  A    between atoms: N_1  and  C_2
REMARK    2  A    between atoms: C_2  and  C_3
REMARK    3  A    between atoms: C_2  and  C_19
REMARK    4  A    between atoms: C_3  and  C_4
REMARK    5  A    between atoms: C_7  and  C_8
REMARK    6  A    between atoms: C_8  and  N_9
REMARK    7  A    between atoms: N_9  and  C_10
REMARK    8  A    between atoms: C_10  and  C_11
REMARK                            x       y       z     vdW  Elec       q    Type
REMARK                         _______ _______ _______ _____ _____    ______ ____
ROOT
ATOM      1  C   UNL     1      47.722   5.184  15.176  0.00  0.00    +0.000 C 
ENDROOT
BRANCH   1   2
ATOM      2  C   UNL     1      46.800   5.148  13.981  0.00  0.00    +0.000 A 
ATOM      3  C   UNL     1      46.182   3.947  13.605  0.00  0.00    +0.000 A 
ATOM      4  C   UNL     1      45.312   3.910  12.513  0.00  0.00    +0.000 A 
ATOM      5  C   UNL     1      45.027   5.075  11.788  0.00  0.00    +0.000 A 
ATOM      6  C   UNL     1      45.656   6.271  12.163  0.00  0.00    +0.000 A 
ATOM      7  C   UNL     1      46.538   6.307  13.245  0.00  0.00    +0.000 A 
BRANCH   5   8
ATOM      8  C   UNL     1      44.052   5.055  10.632  0.00  0.00    +0.000 C 
BRANCH   8   9
ATOM      9  N   UNL     1      44.765   4.931   9.364  0.00  0.00    +0.000 NA
ATOM     10  H   UNL     1      45.764   4.858   9.563  0.00  0.00    +0.000 HD
BRANCH   9  11
ATOM     11  C   UNL     1      44.368   3.728   8.622  0.00  0.00    +0.000 C 
BRANCH  11  12
ATOM     12  C   UNL     1      45.569   3.030   8.007  0.00  0.00    +0.000 A 
ATOM     13  C   UNL     1      45.865   1.706   8.339  0.00  0.00    +0.000 A 
ATOM     14  C   UNL     1      46.943   1.078   7.718  0.00  0.00    +0.000 A 
ATOM     15  C   UNL     1      47.704   1.786   6.798  0.00  0.00    +0.000 A 
ATOM     16  C   UNL     1      47.354   3.100   6.534  0.00  0.00    +0.000 A 
ATOM     17  N   UNL     1      46.307   3.734   7.110  0.00  0.00    +0.000 NA
ENDBRANCH  11  12
ENDBRANCH   9  11
ENDBRANCH   8   9
ENDBRANCH   5   8
ENDBRANCH   1   2
BRANCH   1  18
ATOM     18  C   UNL     1      47.457   4.079  16.229  0.00  0.00    +0.000 C 
BRANCH  18  19
ATOM     19  C   UNL     1      48.751   3.505  16.765  0.00  0.00    +0.000 A 
ATOM     20  C   UNL     1      49.163   2.200  16.550  0.00  0.00    +0.000 A 
ATOM     21  S   UNL     1      50.690   1.855  17.238  0.00  0.00    +0.000 S 
ATOM     22  C   UNL     1      50.843   3.438  17.848  0.00  0.00    +0.000 A 
ATOM     23  N   UNL     1      51.949   3.829  18.537  0.00  0.00    +0.000 NA
ATOM     24  C   UNL     1      51.921   5.059  18.932  0.00  0.00    +0.000 A 
ATOM     25  N   UNL     1      50.888   5.935  18.708  0.00  0.00    +0.000 N 
ATOM     26  C   UNL     1      49.728   5.571  18.061  0.00  0.00    +0.000 A 
ATOM     27  O   UNL     1      48.791   6.356  17.951  0.00  0.00    +0.000 OA
ATOM     28  C   UNL     1      49.736   4.211  17.556  0.00  0.00    +0.000 A 
ATOM     29  H   UNL     1      50.917   6.877  19.062  0.00  0.00    +0.000 HD
ENDBRANCH  18  19
BRANCH  18  30
ATOM     30  N   UNL     1      46.668   4.516  17.386  0.00  0.00    +0.000 NA
ATOM     31  H   UNL     1      46.497   5.518  17.296  0.00  0.00    +0.000 HD
ATOM     32  H   UNL     1      47.265   4.438  18.217  0.00  0.00    +0.000 HD
ENDBRANCH  18  30
ENDBRANCH   1  18
TORSDOF 8
ENDMDL
MODEL 7
REMARK VINA RESULT:    -7.000      3.155      4.078
REMARK INTER + INTRA:         -10.869
REMARK INTER:                  -9.877
REMARK INTRA:                  -0.991
REMARK UNBOUND:                -0.799
REMARK  Name = 
REMARK  8 active torsions:
REMARK  status: ('A' for Active; 'I' for Inactive)
REMARK    1  A    between atoms: N_1  and  C_2
REMARK    2  A    between atoms: C_2  and  C_3
REMARK    3  A    between atoms: C_2  and  C_19
REMARK    4  A    between atoms: C_3  and  C_4
REMARK    5  A    between atoms: C_7  and  C_8
REMARK    6  A    between atoms: C_8  and  N_9
REMARK    7  A    between atoms: N_9  and  C_10
REMARK    8  A    between atoms: C_10  and  C_11
REMARK                            x       y       z     vdW  Elec       q    Type
REMARK                         _______ _______ _______ _____ _____    ______ ____
ROOT
ATOM      1  C   UNL     1      48.804   6.830  13.678  0.00  0.00    +0.000 C 
ENDROOT
BRANCH   1   2
ATOM      2  C   UNL     1      47.514   6.386  13.031  0.00  0.00    +0.000 A 
ATOM      3  C   UNL     1      47.148   6.887  11.774  0.00  0.00    +0.000 A 
ATOM      4  C   UNL     1      45.967   6.466  11.160  0.00  0.00    +0.000 A 
ATOM      5  C   UNL     1      45.137   5.522  11.782  0.00  0.00    +0.000 A 
ATOM      6  C   UNL     1      45.503   5.033  13.044  0.00  0.00    +0.000 A 
ATOM      7  C   UNL     1      46.677   5.464  13.665  0.00  0.00    +0.000 A 
BRANCH   5   8
ATOM      8  C   UNL     1      43.878   5.027  11.105  0.00  0.00    +0.000 C 
BRANCH   8   9
ATOM      9  N   UNL     1      44.151   4.669   9.716  0.00  0.00    +0.000 NA
ATOM     10  H   UNL     1      45.018   5.127   9.430  0.00  0.00    +0.000 HD
BRANCH   9  11
ATOM     11  C   UNL     1      44.333   3.222   9.545  0.00  0.00    +0.000 C 
BRANCH  11  12
ATOM     12  C   UNL     1      45.411   2.913   8.518  0.00  0.00    +0.000 A 
ATOM     13  C   UNL     1      45.961   1.633   8.433  0.00  0.00    +0.000 A 
ATOM     14  C   UNL     1      46.909   1.368   7.448  0.00  0.00    +0.000 A 
ATOM     15  C   UNL     1      47.295   2.386   6.585  0.00  0.00    +0.000 A 
ATOM     16  C   UNL     1      46.712   3.632   6.744  0.00  0.00    +0.000 A 
ATOM     17  N   UNL     1      45.781   3.917   7.683  0.00  0.00    +0.000 NA
ENDBRANCH  11  12
ENDBRANCH   9  11
ENDBRANCH   8   9
ENDBRANCH   5   8
ENDBRANCH   1   2
BRANCH   1  18
ATOM     18  C   UNL     1      48.626   7.805  14.869  0.00  0.00    +0.000 C 
BRANCH  18  19
ATOM     19  C   UNL     1      48.861   7.109  16.192  0.00  0.00    +0.000 A 
ATOM     20  C   UNL     1      49.319   5.806  16.308  0.00  0.00    +0.000 A 
ATOM     21  S   UNL     1      49.532   5.310  17.930  0.00  0.00    +0.000 S 
ATOM     22  C   UNL     1      49.014   6.819  18.526  0.00  0.00    +0.000 A 
ATOM     23  N   UNL     1      48.974   7.079  19.861  0.00  0.00    +0.000 NA
ATOM     24  C   UNL     1      48.564   8.267  20.157  0.00  0.00    +0.000 A 
ATOM     25  N   UNL     1      48.182   9.220  19.246  0.00  0.00    +0.000 N 
ATOM     26  C   UNL     1      48.156   8.987  17.889  0.00  0.00    +0.000 A 
ATOM     27  O   UNL     1      47.730   9.832  17.108  0.00  0.00    +0.000 OA
ATOM     28  C   UNL     1      48.657   7.680  17.506  0.00  0.00    +0.000 A 
ATOM     29  H   UNL     1      47.849  10.123  19.543  0.00  0.00    +0.000 HD
ENDBRANCH  18  19
BRANCH  18  30
ATOM     30  N   UNL     1      49.510   8.976  14.836  0.00  0.00    +0.000 NA
ATOM     31  H   UNL     1      50.141   8.877  14.041  0.00  0.00    +0.000 HD
ATOM     32  H   UNL     1      50.127   8.923  15.655  0.00  0.00    +0.000 HD
ENDBRANCH  18  30
ENDBRANCH   1  18
TORSDOF 8
ENDMDL
MODEL 8
REMARK VINA RESULT:    -6.996      2.786      3.277
REMARK INTER + INTRA:         -10.862
REMARK INTER:                 -10.205
REMARK INTRA:                  -0.657
REMARK UNBOUND:                -0.799
REMARK  Name = 
REMARK  8 active torsions:
REMARK  status: ('A' for Active; 'I' for Inactive)
REMARK    1  A    between atoms: N_1  and  C_2
REMARK    2  A    between atoms: C_2  and  C_3
REMARK    3  A    between atoms: C_2  and  C_19
REMARK    4  A    between atoms: C_3  and  C_4
REMARK    5  A    between atoms: C_7  and  C_8
REMARK    6  A    between atoms: C_8  and  N_9
REMARK    7  A    between atoms: N_9  and  C_10
REMARK    8  A    between atoms: C_10  and  C_11
REMARK                            x       y       z     vdW  Elec       q    Type
REMARK                         _______ _______ _______ _____ _____    ______ ____
ROOT
ATOM      1  C   UNL     1      48.546   6.930  13.967  0.00  0.00    +0.000 C 
ENDROOT
BRANCH   1   2
ATOM      2  C   UNL     1      47.466   6.079  13.345  0.00  0.00    +0.000 A 
ATOM      3  C   UNL     1      47.033   4.910  13.987  0.00  0.00    +0.000 A 
ATOM      4  C   UNL     1      46.020   4.129  13.428  0.00  0.00    +0.000 A 
ATOM      5  C   UNL     1      45.408   4.508  12.225  0.00  0.00    +0.000 A 
ATOM      6  C   UNL     1      45.853   5.672  11.582  0.00  0.00    +0.000 A 
ATOM      7  C   UNL     1      46.876   6.447  12.133  0.00  0.00    +0.000 A 
BRANCH   5   8
ATOM      8  C   UNL     1      44.280   3.691  11.634  0.00  0.00    +0.000 C 
BRANCH   8   9
ATOM      9  N   UNL     1      44.808   2.656  10.750  0.00  0.00    +0.000 NA
ATOM     10  H   UNL     1      44.432   1.755  11.049  0.00  0.00    +0.000 HD
BRANCH   9  11
ATOM     11  C   UNL     1      44.410   2.867   9.353  0.00  0.00    +0.000 C 
BRANCH  11  12
ATOM     12  C   UNL     1      45.521   2.480   8.391  0.00  0.00    +0.000 A 
ATOM     13  C   UNL     1      46.073   3.430   7.530  0.00  0.00    +0.000 A 
ATOM     14  C   UNL     1      47.125   3.057   6.697  0.00  0.00    +0.000 A 
ATOM     15  C   UNL     1      47.590   1.749   6.733  0.00  0.00    +0.000 A 
ATOM     16  C   UNL     1      46.979   0.864   7.605  0.00  0.00    +0.000 A 
ATOM     17  N   UNL     1      45.964   1.198   8.435  0.00  0.00    +0.000 NA
ENDBRANCH  11  12
ENDBRANCH   9  11
ENDBRANCH   8   9
ENDBRANCH   5   8
ENDBRANCH   1   2
BRANCH   1  18
ATOM     18  C   UNL     1      48.476   7.034  15.512  0.00  0.00    +0.000 C 
BRANCH  18  19
ATOM     19  C   UNL     1      49.713   6.452  16.161  0.00  0.00    +0.000 A 
ATOM     20  C   UNL     1      49.692   5.383  17.043  0.00  0.00    +0.000 A 
ATOM     21  S   UNL     1      51.248   4.918  17.575  0.00  0.00    +0.000 S 
ATOM     22  C   UNL     1      51.998   6.133  16.646  0.00  0.00    +0.000 A 
ATOM     23  N   UNL     1      53.350   6.280  16.628  0.00  0.00    +0.000 NA
ATOM     24  C   UNL     1      53.769   7.242  15.874  0.00  0.00    +0.000 A 
ATOM     25  N   UNL     1      52.963   8.076  15.140  0.00  0.00    +0.000 N 
ATOM     26  C   UNL     1      51.588   7.999  15.166  0.00  0.00    +0.000 A 
ATOM     27  O   UNL     1      50.897   8.814  14.563  0.00  0.00    +0.000 OA
ATOM     28  C   UNL     1      51.075   6.900  15.962  0.00  0.00    +0.000 A 
ATOM     29  H   UNL     1      53.352   8.823  14.588  0.00  0.00    +0.000 HD
ENDBRANCH  18  19
BRANCH  18  30
ATOM     30  N   UNL     1      48.323   8.399  16.026  0.00  0.00    +0.000 NA
ATOM     31  H   UNL     1      49.207   8.890  15.895  0.00  0.00    +0.000 HD
ATOM     32  H   UNL     1      48.218   8.338  17.045  0.00  0.00    +0.000 HD
ENDBRANCH  18  30
ENDBRANCH   1  18
TORSDOF 8
ENDMDL
MODEL 9
REMARK VINA RESULT:    -6.936      3.472      4.304
REMARK INTER + INTRA:         -10.776
REMARK INTER:                  -9.884
REMARK INTRA:                  -0.892
REMARK UNBOUND:                -0.799
REMARK  Name = 
REMARK  8 active torsions:
REMARK  status: ('A' for Active; 'I' for Inactive)
REMARK    1  A    between atoms: N_1  and  C_2
REMARK    2  A    between atoms: C_2  and  C_3
REMARK    3  A    between atoms: C_2  and  C_19
REMARK    4  A    between atoms: C_3  and  C_4
REMARK    5  A    between atoms: C_7  and  C_8
REMARK    6  A    between atoms: C_8  and  N_9
REMARK    7  A    between atoms: N_9  and  C_10
REMARK    8  A    between atoms: C_10  and  C_11
REMARK                            x       y       z     vdW  Elec       q    Type
REMARK                         _______ _______ _______ _____ _____    ______ ____
ROOT
ATOM      1  C   UNL     1      46.847   8.519  12.731  0.00  0.00    +0.000 C 
ENDROOT
BRANCH   1   2
ATOM      2  C   UNL     1      45.969   7.383  12.262  0.00  0.00    +0.000 A 
ATOM      3  C   UNL     1      46.436   6.063  12.322  0.00  0.00    +0.000 A 
ATOM      4  C   UNL     1      45.622   5.005  11.909  0.00  0.00    +0.000 A 
ATOM      5  C   UNL     1      44.320   5.245  11.447  0.00  0.00    +0.000 A 
ATOM      6  C   UNL     1      43.863   6.569  11.380  0.00  0.00    +0.000 A 
ATOM      7  C   UNL     1      44.681   7.629  11.779  0.00  0.00    +0.000 A 
BRANCH   5   8
ATOM      8  C   UNL     1      43.416   4.103  11.040  0.00  0.00    +0.000 C 
BRANCH   8   9
ATOM      9  N   UNL     1      43.753   3.638   9.697  0.00  0.00    +0.000 NA
ATOM     10  H   UNL     1      44.226   4.397   9.204  0.00  0.00    +0.000 HD
BRANCH   9  11
ATOM     11  C   UNL     1      44.662   2.486   9.724  0.00  0.00    +0.000 C 
BRANCH  11  12
ATOM     12  C   UNL     1      45.643   2.522   8.564  0.00  0.00    +0.000 A 
ATOM     13  C   UNL     1      46.291   1.357   8.149  0.00  0.00    +0.000 A 
ATOM     14  C   UNL     1      47.144   1.413   7.050  0.00  0.00    +0.000 A 
ATOM     15  C   UNL     1      47.342   2.627   6.404  0.00  0.00    +0.000 A 
ATOM     16  C   UNL     1      46.674   3.739   6.887  0.00  0.00    +0.000 A 
ATOM     17  N   UNL     1      45.830   3.715   7.944  0.00  0.00    +0.000 NA
ENDBRANCH  11  12
ENDBRANCH   9  11
ENDBRANCH   8   9
ENDBRANCH   5   8
ENDBRANCH   1   2
BRANCH   1  18
ATOM     18  C   UNL     1      47.703   8.199  13.982  0.00  0.00    +0.000 C 
BRANCH  18  19
ATOM     19  C   UNL     1      49.176   8.419  13.715  0.00  0.00    +0.000 A 
ATOM     20  C   UNL     1      49.665   9.187  12.669  0.00  0.00    +0.000 A 
ATOM     21  S   UNL     1      51.371   9.292  12.651  0.00  0.00    +0.000 S 
ATOM     22  C   UNL     1      51.509   8.310  14.036  0.00  0.00    +0.000 A 
ATOM     23  N   UNL     1      52.721   8.014  14.578  0.00  0.00    +0.000 NA
ATOM     24  C   UNL     1      52.664   7.263  15.628  0.00  0.00    +0.000 A 
ATOM     25  N   UNL     1      51.508   6.775  16.186  0.00  0.00    +0.000 N 
ATOM     26  C   UNL     1      50.263   7.006  15.645  0.00  0.00    +0.000 A 
ATOM     27  O   UNL     1      49.259   6.486  16.121  0.00  0.00    +0.000 OA
ATOM     28  C   UNL     1      50.276   7.886  14.491  0.00  0.00    +0.000 A 
ATOM     29  H   UNL     1      51.532   6.175  16.994  0.00  0.00    +0.000 HD
ENDBRANCH  18  19
BRANCH  18  30
ATOM     30  N   UNL     1      47.360   8.983  15.173  0.00  0.00    +0.000 NA
ATOM     31  H   UNL     1      46.409   8.742  15.451  0.00  0.00    +0.000 HD
ATOM     32  H   UNL     1      47.297   9.968  14.890  0.00  0.00    +0.000 HD
ENDBRANCH  18  30
ENDBRANCH   1  18
TORSDOF 8
ENDMDL
