MODEL 1
REMARK VINA RESULT:    -7.994      0.000      0.000
REMARK INTER + INTRA:         -10.933
REMARK INTER:                 -10.330
REMARK INTRA:                  -0.603
REMARK UNBOUND:                -0.603
REMARK  Name = 
REMARK  5 active torsions:
REMARK  status: ('A' for Active; 'I' for Inactive)
REMARK    1  A    between atoms: C_2  and  C_4
REMARK    2  A    between atoms: C_8  and  O_9
REMARK    3  A    between atoms: O_9  and  C_10
REMARK    4  A    between atoms: C_10  and  C_11
REMARK    5  A    between atoms: C_15  and  C_16
REMARK                            x       y       z     vdW  Elec       q    Type
REMARK                         _______ _______ _______ _____ _____    ______ ____
ROOT
ATOM      1  C   UNL     1      43.597   4.568  10.448  0.00  0.00    +0.000 C 
ENDROOT
BRANCH   1   2
ATOM      2  C   UNL     1      44.704   4.798  11.447  0.00  0.00    +0.000 A 
ATOM      3  C   UNL     1      45.022   3.813  12.388  0.00  0.00    +0.000 A 
ATOM      4  C   UNL     1      46.091   3.997  13.260  0.00  0.00    +0.000 A 
ATOM      5  C   UNL     1      46.856   5.163  13.199  0.00  0.00    +0.000 A 
ATOM      6  C   UNL     1      46.558   6.172  12.276  0.00  0.00    +0.000 A 
ATOM      7  C   UNL     1      45.459   5.981  11.417  0.00  0.00    +0.000 A 
BRANCH   6   8
ATOM      8  C   UNL     1      47.414   7.424  12.109  0.00  0.00    +0.000 C 
ATOM      9  C   UNL     1      48.837   7.195  12.653  0.00  0.00    +0.000 C 
ATOM     10  C   UNL     1      48.922   7.397  14.165  0.00  0.00    +0.000 C 
ATOM     11  C   UNL     1      48.309   8.728  14.594  0.00  0.00    +0.000 C 
ATOM     12  N   UNL     1      46.930   8.867  14.137  0.00  0.00    +0.000 NA
ATOM     13  C   UNL     1      46.823   8.734  12.679  0.00  0.00    +0.000 C 
ATOM     14  H   UNL     1      46.562   9.772  14.425  0.00  0.00    +0.000 HD
ENDBRANCH   6   8
ENDBRANCH   1   2
BRANCH   1  15
ATOM     15  O   UNL     1      44.121   4.590   9.121  0.00  0.00    +0.000 OA
BRANCH  15  20
ATOM     16  C   UNL     1      46.460   2.588   7.189  0.00  0.00    +0.000 A 
ATOM     17  C   UNL     1      46.289   1.310   7.733  0.00  0.00    +0.000 A 
ATOM     18  C   UNL     1      45.383   1.110   8.772  0.00  0.00    +0.000 A 
ATOM     19  C   UNL     1      44.636   2.184   9.267  0.00  0.00    +0.000 A 
ATOM     20  C   UNL     1      44.791   3.463   8.720  0.00  0.00    +0.000 A 
ATOM     21  C   UNL     1      45.698   3.657   7.674  0.00  0.00    +0.000 A 
BRANCH  16  23
ATOM     22  N   UNL     1      48.761   2.483   6.396  0.00  0.00    +0.000 N 
ATOM     23  C   UNL     1      47.455   2.761   6.100  0.00  0.00    +0.000 C 
ATOM     24  O   UNL     1      47.121   3.090   4.969  0.00  0.00    +0.000 OA
ATOM     25  H   UNL     1      49.410   2.492   5.620  0.00  0.00    +0.000 HD
ATOM     26  H   UNL     1      49.034   1.989   7.233  0.00  0.00    +0.000 HD
ENDBRANCH  16  23
ENDBRANCH  15  20
ENDBRANCH   1  15
TORSDOF 5
ENDMDL
MODEL 2
REMARK VINA RESULT:    -7.287      2.509      3.629
REMARK INTER + INTRA:         -10.019
REMARK INTER:                  -9.325
REMARK INTRA:                  -0.694
REMARK UNBOUND:                -0.603
REMARK  Name = 
REMARK  5 active torsions:
REMARK  status: ('A' for Active; 'I' for Inactive)
REMARK    1  A    between atoms: C_2  and  C_4
REMARK    2  A    between atoms: C_8  and  O_9
REMARK    3  A    between atoms: O_9  and  C_10
REMARK    4  A    between atoms: C_10  and  C_11
REMARK    5  A    between atoms: C_15  and  C_16
REMARK                            x       y       z     vdW  Elec       q    Type
REMARK                         _______ _______ _______ _____ _____    ______ ____
ROOT
ATOM      1  C   UNL     1      44.946   5.463  10.931  0.00  0.00    +0.000 C 
ENDROOT
BRANCH   1   2
ATOM      2  C   UNL     1      45.537   6.763  11.419  0.00  0.00    +0.000 A 
ATOM      3  C   UNL     1      46.893   6.841  11.753  0.00  0.00    +0.000 A 
ATOM      4  C   UNL     1      47.452   8.058  12.133  0.00  0.00    +0.000 A 
ATOM      5  C   UNL     1      46.664   9.210  12.178  0.00  0.00    +0.000 A 
ATOM      6  C   UNL     1      45.302   9.163  11.860  0.00  0.00    +0.000 A 
ATOM      7  C   UNL     1      44.747   7.920  11.501  0.00  0.00    +0.000 A 
BRANCH   6   8
ATOM      8  C   UNL     1      44.418  10.406  11.808  0.00  0.00    +0.000 C 
ATOM      9  C   UNL     1      43.275  10.228  10.791  0.00  0.00    +0.000 C 
ATOM     10  C   UNL     1      43.713  10.540   9.361  0.00  0.00    +0.000 C 
ATOM     11  C   UNL     1      44.412  11.895   9.266  0.00  0.00    +0.000 C 
ATOM     12  N   UNL     1      45.546  11.989  10.180  0.00  0.00    +0.000 NA
ATOM     13  C   UNL     1      45.145  11.750  11.572  0.00  0.00    +0.000 C 
ATOM     14  H   UNL     1      45.974  12.911  10.103  0.00  0.00    +0.000 HD
ENDBRANCH   6   8
ENDBRANCH   1   2
BRANCH   1  15
ATOM     15  O   UNL     1      45.190   5.307   9.534  0.00  0.00    +0.000 OA
BRANCH  15  20
ATOM     16  C   UNL     1      46.533   2.617   7.490  0.00  0.00    +0.000 A 
ATOM     17  C   UNL     1      45.906   1.487   8.024  0.00  0.00    +0.000 A 
ATOM     18  C   UNL     1      45.024   1.619   9.094  0.00  0.00    +0.000 A 
ATOM     19  C   UNL     1      44.757   2.883   9.631  0.00  0.00    +0.000 A 
ATOM     20  C   UNL     1      45.369   4.021   9.094  0.00  0.00    +0.000 A 
ATOM     21  C   UNL     1      46.249   3.883   8.016  0.00  0.00    +0.000 A 
BRANCH  16  23
ATOM     22  N   UNL     1      47.288   3.186   5.245  0.00  0.00    +0.000 N 
ATOM     23  C   UNL     1      47.485   2.428   6.366  0.00  0.00    +0.000 C 
ATOM     24  O   UNL     1      48.438   1.664   6.451  0.00  0.00    +0.000 OA
ATOM     25  H   UNL     1      48.006   3.134   4.535  0.00  0.00    +0.000 HD
ATOM     26  H   UNL     1      46.668   3.983   5.231  0.00  0.00    +0.000 HD
ENDBRANCH  16  23
ENDBRANCH  15  20
ENDBRANCH   1  15
TORSDOF 5
ENDMDL
MODEL 3
REMARK VINA RESULT:    -7.222      3.538      5.266
REMARK INTER + INTRA:          -9.936
REMARK INTER:                  -9.105
REMARK INTRA:                  -0.831
REMARK UNBOUND:                -0.603
REMARK  Name = 
REMARK  5 active torsions:
REMARK  status: ('A' for Active; 'I' for Inactive)
REMARK    1  A    between atoms: C_2  and  C_4
REMARK    2  A    between atoms: C_8  and  O_9
REMARK    3  A    between atoms: O_9  and  C_10
REMARK    4  A    between atoms: C_10  and  C_11
REMARK    5  A    between atoms: C_15  and  C_16
REMARK                            x       y       z     vdW  Elec       q    Type
REMARK                         _______ _______ _______ _____ _____    ______ ____
ROOT
ATOM      1  C   UNL     1      47.221   6.198  13.033  0.00  0.00    +0.000 C 
ENDROOT
BRANCH   1   2
ATOM      2  C   UNL     1      47.922   6.273  14.367  0.00  0.00    +0.000 A 
ATOM      3  C   UNL     1      48.517   7.468  14.785  0.00  0.00    +0.000 A 
ATOM      4  C   UNL     1      49.100   7.556  16.047  0.00  0.00    +0.000 A 
ATOM      5  C   UNL     1      49.090   6.454  16.904  0.00  0.00    +0.000 A 
ATOM      6  C   UNL     1      48.511   5.241  16.511  0.00  0.00    +0.000 A 
ATOM      7  C   UNL     1      47.948   5.162  15.223  0.00  0.00    +0.000 A 
BRANCH   6   8
ATOM      8  C   UNL     1      48.397   4.036  17.440  0.00  0.00    +0.000 C 
ATOM      9  C   UNL     1      49.618   3.942  18.374  0.00  0.00    +0.000 C 
ATOM     10  C   UNL     1      50.809   3.254  17.708  0.00  0.00    +0.000 C 
ATOM     11  C   UNL     1      50.414   1.919  17.081  0.00  0.00    +0.000 C 
ATOM     12  N   UNL     1      49.313   2.066  16.133  0.00  0.00    +0.000 NA
ATOM     13  C   UNL     1      48.132   2.673  16.759  0.00  0.00    +0.000 C 
ATOM     14  H   UNL     1      49.065   1.154  15.751  0.00  0.00    +0.000 HD
ENDBRANCH   6   8
ENDBRANCH   1   2
BRANCH   1  15
ATOM     15  O   UNL     1      45.807   6.163  13.224  0.00  0.00    +0.000 OA
BRANCH  15  20
ATOM     16  C   UNL     1      44.774   4.295  10.280  0.00  0.00    +0.000 A 
ATOM     17  C   UNL     1      43.862   3.376  10.808  0.00  0.00    +0.000 A 
ATOM     18  C   UNL     1      43.589   3.369  12.174  0.00  0.00    +0.000 A 
ATOM     19  C   UNL     1      44.221   4.286  13.019  0.00  0.00    +0.000 A 
ATOM     20  C   UNL     1      45.125   5.219  12.498  0.00  0.00    +0.000 A 
ATOM     21  C   UNL     1      45.391   5.225  11.126  0.00  0.00    +0.000 A 
BRANCH  16  23
ATOM     22  N   UNL     1      44.259   3.444   8.057  0.00  0.00    +0.000 N 
ATOM     23  C   UNL     1      45.054   4.251   8.822  0.00  0.00    +0.000 C 
ATOM     24  O   UNL     1      45.926   4.944   8.312  0.00  0.00    +0.000 OA
ATOM     25  H   UNL     1      44.382   3.510   7.055  0.00  0.00    +0.000 HD
ATOM     26  H   UNL     1      43.396   3.051   8.401  0.00  0.00    +0.000 HD
ENDBRANCH  16  23
ENDBRANCH  15  20
ENDBRANCH   1  15
TORSDOF 5
ENDMDL
MODEL 4
REMARK VINA RESULT:    -7.099      4.556      8.172
REMARK INTER + INTRA:          -9.777
REMARK INTER:                  -9.004
REMARK INTRA:                  -0.773
REMARK UNBOUND:                -0.603
REMARK  Name = 
REMARK  5 active torsions:
REMARK  status: ('A' for Active; 'I' for Inactive)
REMARK    1  A    between atoms: C_2  and  C_4
REMARK    2  A    between atoms: C_8  and  O_9
REMARK    3  A    between atoms: O_9  and  C_10
REMARK    4  A    between atoms: C_10  and  C_11
REMARK    5  A    between atoms: C_15  and  C_16
REMARK                            x       y       z     vdW  Elec       q    Type
REMARK                         _______ _______ _______ _____ _____    ______ ____
ROOT
ATOM      1  C   UNL     1      47.188   3.457  14.568  0.00  0.00    +0.000 C 
ENDROOT
BRANCH   1   2
ATOM      2  C   UNL     1      46.648   4.349  13.478  0.00  0.00    +0.000 A 
ATOM      3  C   UNL     1      47.227   5.599  13.237  0.00  0.00    +0.000 A 
ATOM      4  C   UNL     1      46.775   6.389  12.183  0.00  0.00    +0.000 A 
ATOM      5  C   UNL     1      45.744   5.937  11.358  0.00  0.00    +0.000 A 
ATOM      6  C   UNL     1      45.137   4.695  11.579  0.00  0.00    +0.000 A 
ATOM      7  C   UNL     1      45.589   3.919  12.663  0.00  0.00    +0.000 A 
BRANCH   6   8
ATOM      8  C   UNL     1      44.068   4.117  10.655  0.00  0.00    +0.000 C 
ATOM      9  C   UNL     1      44.273   2.604  10.454  0.00  0.00    +0.000 C 
ATOM     10  C   UNL     1      45.307   2.293   9.374  0.00  0.00    +0.000 C 
ATOM     11  C   UNL     1      45.016   3.048   8.078  0.00  0.00    +0.000 C 
ATOM     12  N   UNL     1      44.921   4.488   8.296  0.00  0.00    +0.000 NA
ATOM     13  C   UNL     1      43.894   4.823   9.289  0.00  0.00    +0.000 C 
ATOM     14  H   UNL     1      44.708   4.955   7.416  0.00  0.00    +0.000 HD
ENDBRANCH   6   8
ENDBRANCH   1   2
BRANCH   1  15
ATOM     15  O   UNL     1      46.676   3.865  15.836  0.00  0.00    +0.000 OA
BRANCH  15  20
ATOM     16  C   UNL     1      49.721   3.151  17.689  0.00  0.00    +0.000 A 
ATOM     17  C   UNL     1      49.608   3.998  18.797  0.00  0.00    +0.000 A 
ATOM     18  C   UNL     1      48.501   4.832  18.927  0.00  0.00    +0.000 A 
ATOM     19  C   UNL     1      47.495   4.819  17.956  0.00  0.00    +0.000 A 
ATOM     20  C   UNL     1      47.592   3.966  16.851  0.00  0.00    +0.000 A 
ATOM     21  C   UNL     1      48.703   3.126  16.728  0.00  0.00    +0.000 A 
BRANCH  16  23
ATOM     22  N   UNL     1      52.027   2.667  18.303  0.00  0.00    +0.000 N 
ATOM     23  C   UNL     1      50.930   2.296  17.577  0.00  0.00    +0.000 C 
ATOM     24  O   UNL     1      50.936   1.274  16.902  0.00  0.00    +0.000 OA
ATOM     25  H   UNL     1      52.803   2.017  18.311  0.00  0.00    +0.000 HD
ATOM     26  H   UNL     1      51.982   3.354  19.041  0.00  0.00    +0.000 HD
ENDBRANCH  16  23
ENDBRANCH  15  20
ENDBRANCH   1  15
TORSDOF 5
ENDMDL
MODEL 5
REMARK VINA RESULT:    -7.068      1.429      2.246
REMARK INTER + INTRA:          -9.736
REMARK INTER:                  -9.057
REMARK INTRA:                  -0.680
REMARK UNBOUND:                -0.603
REMARK  Name = 
REMARK  5 active torsions:
REMARK  status: ('A' for Active; 'I' for Inactive)
REMARK    1  A    between atoms: C_2  and  C_4
REMARK    2  A    between atoms: C_8  and  O_9
REMARK    3  A    between atoms: O_9  and  C_10
REMARK    4  A    between atoms: C_10  and  C_11
REMARK    5  A    between atoms: C_15  and  C_16
REMARK                            x       y       z     vdW  Elec       q    Type
REMARK                         _______ _______ _______ _____ _____    ______ ____
ROOT
ATOM      1  C   UNL     1      45.077   5.470  11.019  0.00  0.00    +0.000 C 
ENDROOT
BRANCH   1   2
ATOM      2  C   UNL     1      45.515   6.859  11.413  0.00  0.00    +0.000 A 
ATOM      3  C   UNL     1      44.598   7.915  11.412  0.00  0.00    +0.000 A 
ATOM      4  C   UNL     1      44.985   9.180  11.846  0.00  0.00    +0.000 A 
ATOM      5  C   UNL     1      46.290   9.401  12.290  0.00  0.00    +0.000 A 
ATOM      6  C   UNL     1      47.234   8.367  12.294  0.00  0.00    +0.000 A 
ATOM      7  C   UNL     1      46.833   7.101  11.829  0.00  0.00    +0.000 A 
BRANCH   6   8
ATOM      8  C   UNL     1      48.646   8.534  12.850  0.00  0.00    +0.000 C 
ATOM      9  C   UNL     1      49.121   7.243  13.544  0.00  0.00    +0.000 C 
ATOM     10  C   UNL     1      48.619   7.135  14.982  0.00  0.00    +0.000 C 
ATOM     11  C   UNL     1      48.913   8.403  15.782  0.00  0.00    +0.000 C 
ATOM     12  N   UNL     1      48.366   9.593  15.138  0.00  0.00    +0.000 NA
ATOM     13  C   UNL     1      48.875   9.756  13.771  0.00  0.00    +0.000 C 
ATOM     14  H   UNL     1      48.598  10.419  15.688  0.00  0.00    +0.000 HD
ENDBRANCH   6   8
ENDBRANCH   1   2
BRANCH   1  15
ATOM     15  O   UNL     1      45.157   5.313   9.603  0.00  0.00    +0.000 OA
BRANCH  15  20
ATOM     16  C   UNL     1      46.502   2.625   7.558  0.00  0.00    +0.000 A 
ATOM     17  C   UNL     1      45.832   1.501   8.054  0.00  0.00    +0.000 A 
ATOM     18  C   UNL     1      44.919   1.637   9.096  0.00  0.00    +0.000 A 
ATOM     19  C   UNL     1      44.665   2.898   9.645  0.00  0.00    +0.000 A 
ATOM     20  C   UNL     1      45.320   4.030   9.147  0.00  0.00    +0.000 A 
ATOM     21  C   UNL     1      46.231   3.888   8.097  0.00  0.00    +0.000 A 
BRANCH  16  23
ATOM     22  N   UNL     1      47.325   3.189   5.336  0.00  0.00    +0.000 N 
ATOM     23  C   UNL     1      47.486   2.431   6.462  0.00  0.00    +0.000 C 
ATOM     24  O   UNL     1      48.433   1.662   6.575  0.00  0.00    +0.000 OA
ATOM     25  H   UNL     1      48.064   3.134   4.647  0.00  0.00    +0.000 HD
ATOM     26  H   UNL     1      46.710   3.989   5.305  0.00  0.00    +0.000 HD
ENDBRANCH  16  23
ENDBRANCH  15  20
ENDBRANCH   1  15
TORSDOF 5
ENDMDL
MODEL 6
REMARK VINA RESULT:    -6.758      3.712      5.671
REMARK INTER + INTRA:          -9.336
REMARK INTER:                  -8.535
REMARK INTRA:                  -0.801
REMARK UNBOUND:                -0.603
REMARK  Name = 
REMARK  5 active torsions:
REMARK  status: ('A' for Active; 'I' for Inactive)
REMARK    1  A    between atoms: C_2  and  C_4
REMARK    2  A    between atoms: C_8  and  O_9
REMARK    3  A    between atoms: O_9  and  C_10
REMARK    4  A    between atoms: C_10  and  C_11
REMARK    5  A    between atoms: C_15  and  C_16
REMARK                            x       y       z     vdW  Elec       q    Type
REMARK                         _______ _______ _______ _____ _____    ______ ____
ROOT
ATOM      1  C   UNL     1      47.350   3.586  14.924  0.00  0.00    +0.000 C 
ENDROOT
BRANCH   1   2
ATOM      2  C   UNL     1      47.830   3.901  16.319  0.00  0.00    +0.000 A 
ATOM      3  C   UNL     1      47.851   2.904  17.300  0.00  0.00    +0.000 A 
ATOM      4  C   UNL     1      48.363   3.178  18.566  0.00  0.00    +0.000 A 
ATOM      5  C   UNL     1      48.864   4.447  18.862  0.00  0.00    +0.000 A 
ATOM      6  C   UNL     1      48.849   5.468  17.905  0.00  0.00    +0.000 A 
ATOM      7  C   UNL     1      48.305   5.182  16.638  0.00  0.00    +0.000 A 
BRANCH   6   8
ATOM      8  C   UNL     1      49.463   6.844  18.149  0.00  0.00    +0.000 C 
ATOM      9  C   UNL     1      49.251   7.290  19.608  0.00  0.00    +0.000 C 
ATOM     10  C   UNL     1      47.876   7.917  19.833  0.00  0.00    +0.000 C 
ATOM     11  C   UNL     1      47.578   9.011  18.809  0.00  0.00    +0.000 C 
ATOM     12  N   UNL     1      47.700   8.523  17.439  0.00  0.00    +0.000 NA
ATOM     13  C   UNL     1      49.031   7.965  17.175  0.00  0.00    +0.000 C 
ATOM     14  H   UNL     1      47.513   9.282  16.786  0.00  0.00    +0.000 HD
ENDBRANCH   6   8
ENDBRANCH   1   2
BRANCH   1  15
ATOM     15  O   UNL     1      46.170   4.332  14.631  0.00  0.00    +0.000 OA
BRANCH  15  20
ATOM     16  C   UNL     1      45.023   4.675  11.197  0.00  0.00    +0.000 A 
ATOM     17  C   UNL     1      45.755   5.777  10.741  0.00  0.00    +0.000 A 
ATOM     18  C   UNL     1      46.642   6.427  11.595  0.00  0.00    +0.000 A 
ATOM     19  C   UNL     1      46.810   5.975  12.908  0.00  0.00    +0.000 A 
ATOM     20  C   UNL     1      46.093   4.866  13.369  0.00  0.00    +0.000 A 
ATOM     21  C   UNL     1      45.208   4.213  12.506  0.00  0.00    +0.000 A 
BRANCH  16  23
ATOM     22  N   UNL     1      44.100   4.434   8.957  0.00  0.00    +0.000 N 
ATOM     23  C   UNL     1      44.070   4.027  10.261  0.00  0.00    +0.000 C 
ATOM     24  O   UNL     1      43.319   3.130  10.625  0.00  0.00    +0.000 OA
ATOM     25  H   UNL     1      43.531   3.907   8.307  0.00  0.00    +0.000 HD
ATOM     26  H   UNL     1      44.855   4.988   8.579  0.00  0.00    +0.000 HD
ENDBRANCH  16  23
ENDBRANCH  15  20
ENDBRANCH   1  15
TORSDOF 5
ENDMDL
MODEL 7
REMARK VINA RESULT:    -6.740      3.949      7.956
REMARK INTER + INTRA:          -9.313
REMARK INTER:                  -8.299
REMARK INTRA:                  -1.014
REMARK UNBOUND:                -0.603
REMARK  Name = 
REMARK  5 active torsions:
REMARK  status: ('A' for Active; 'I' for Inactive)
REMARK    1  A    between atoms: C_2  and  C_4
REMARK    2  A    between atoms: C_8  and  O_9
REMARK    3  A    between atoms: O_9  and  C_10
REMARK    4  A    between atoms: C_10  and  C_11
REMARK    5  A    between atoms: C_15  and  C_16
REMARK                            x       y       z     vdW  Elec       q    Type
REMARK                         _______ _______ _______ _____ _____    ______ ____
ROOT
ATOM      1  C   UNL     1      48.576   7.447  13.363  0.00  0.00    +0.000 C 
ENDROOT
BRANCH   1   2
ATOM      2  C   UNL     1      47.200   7.577  12.758  0.00  0.00    +0.000 A 
ATOM      3  C   UNL     1      46.571   8.825  12.697  0.00  0.00    +0.000 A 
ATOM      4  C   UNL     1      45.334   8.956  12.072  0.00  0.00    +0.000 A 
ATOM      5  C   UNL     1      44.715   7.844  11.498  0.00  0.00    +0.000 A 
ATOM      6  C   UNL     1      45.314   6.580  11.552  0.00  0.00    +0.000 A 
ATOM      7  C   UNL     1      46.553   6.460  12.208  0.00  0.00    +0.000 A 
BRANCH   6   8
ATOM      8  C   UNL     1      44.722   5.351  10.865  0.00  0.00    +0.000 C 
ATOM      9  C   UNL     1      43.199   5.279  11.082  0.00  0.00    +0.000 C 
ATOM     10  C   UNL     1      42.830   4.648  12.424  0.00  0.00    +0.000 C 
ATOM     11  C   UNL     1      43.542   3.314  12.636  0.00  0.00    +0.000 C 
ATOM     12  N   UNL     1      44.991   3.443  12.514  0.00  0.00    +0.000 NA
ATOM     13  C   UNL     1      45.380   3.995  11.211  0.00  0.00    +0.000 C 
ATOM     14  H   UNL     1      45.429   2.532  12.642  0.00  0.00    +0.000 HD
ENDBRANCH   6   8
ENDBRANCH   1   2
BRANCH   1  15
ATOM     15  O   UNL     1      48.713   6.178  14.002  0.00  0.00    +0.000 OA
BRANCH  15  20
ATOM     16  C   UNL     1      47.992   4.839  17.305  0.00  0.00    +0.000 A 
ATOM     17  C   UNL     1      48.274   5.924  18.141  0.00  0.00    +0.000 A 
ATOM     18  C   UNL     1      48.723   7.126  17.598  0.00  0.00    +0.000 A 
ATOM     19  C   UNL     1      48.885   7.252  16.214  0.00  0.00    +0.000 A 
ATOM     20  C   UNL     1      48.592   6.177  15.369  0.00  0.00    +0.000 A 
ATOM     21  C   UNL     1      48.136   4.975  15.918  0.00  0.00    +0.000 A 
BRANCH  16  23
ATOM     22  N   UNL     1      48.167   3.179  19.078  0.00  0.00    +0.000 N 
ATOM     23  C   UNL     1      47.539   3.569  17.928  0.00  0.00    +0.000 C 
ATOM     24  O   UNL     1      46.611   2.919  17.464  0.00  0.00    +0.000 OA
ATOM     25  H   UNL     1      47.775   2.378  19.555  0.00  0.00    +0.000 HD
ATOM     26  H   UNL     1      48.761   3.799  19.609  0.00  0.00    +0.000 HD
ENDBRANCH  16  23
ENDBRANCH  15  20
ENDBRANCH   1  15
TORSDOF 5
ENDMDL
MODEL 8
REMARK VINA RESULT:    -6.457      4.334      6.669
REMARK INTER + INTRA:          -8.947
REMARK INTER:                  -7.688
REMARK INTRA:                  -1.259
REMARK UNBOUND:                -0.603
REMARK  Name = 
REMARK  5 active torsions:
REMARK  status: ('A' for Active; 'I' for Inactive)
REMARK    1  A    between atoms: C_2  and  C_4
REMARK    2  A    between atoms: C_8  and  O_9
REMARK    3  A    between atoms: O_9  and  C_10
REMARK    4  A    between atoms: C_10  and  C_11
REMARK    5  A    between atoms: C_15  and  C_16
REMARK                            x       y       z     vdW  Elec       q    Type
REMARK                         _______ _______ _______ _____ _____    ______ ____
ROOT
ATOM      1  C   UNL     1      48.823   8.499  13.970  0.00  0.00    +0.000 C 
ENDROOT
BRANCH   1   2
ATOM      2  C   UNL     1      49.757   7.723  14.866  0.00  0.00    +0.000 A 
ATOM      3  C   UNL     1      51.133   7.972  14.836  0.00  0.00    +0.000 A 
ATOM      4  C   UNL     1      51.984   7.308  15.716  0.00  0.00    +0.000 A 
ATOM      5  C   UNL     1      51.469   6.394  16.637  0.00  0.00    +0.000 A 
ATOM      6  C   UNL     1      50.098   6.116  16.686  0.00  0.00    +0.000 A 
ATOM      7  C   UNL     1      49.254   6.778  15.773  0.00  0.00    +0.000 A 
BRANCH   6   8
ATOM      8  C   UNL     1      49.475   5.193  17.729  0.00  0.00    +0.000 C 
ATOM      9  C   UNL     1      50.522   4.218  18.298  0.00  0.00    +0.000 C 
ATOM     10  C   UNL     1      50.725   2.994  17.406  0.00  0.00    +0.000 C 
ATOM     11  C   UNL     1      49.398   2.327  17.051  0.00  0.00    +0.000 C 
ATOM     12  N   UNL     1      48.466   3.263  16.430  0.00  0.00    +0.000 NA
ATOM     13  C   UNL     1      48.207   4.424  17.289  0.00  0.00    +0.000 C 
ATOM     14  H   UNL     1      47.588   2.789  16.225  0.00  0.00    +0.000 HD
ENDBRANCH   6   8
ENDBRANCH   1   2
BRANCH   1  15
ATOM     15  O   UNL     1      48.635   7.804  12.738  0.00  0.00    +0.000 OA
BRANCH  15  20
ATOM     16  C   UNL     1      46.233   5.075  12.772  0.00  0.00    +0.000 A 
ATOM     17  C   UNL     1      45.060   5.697  12.332  0.00  0.00    +0.000 A 
ATOM     18  C   UNL     1      45.064   7.055  12.025  0.00  0.00    +0.000 A 
ATOM     19  C   UNL     1      46.242   7.799  12.149  0.00  0.00    +0.000 A 
ATOM     20  C   UNL     1      47.423   7.183  12.576  0.00  0.00    +0.000 A 
ATOM     21  C   UNL     1      47.416   5.818  12.876  0.00  0.00    +0.000 A 
BRANCH  16  23
ATOM     22  N   UNL     1      45.251   2.869  12.458  0.00  0.00    +0.000 N 
ATOM     23  C   UNL     1      46.179   3.630  13.112  0.00  0.00    +0.000 C 
ATOM     24  O   UNL     1      46.962   3.126  13.907  0.00  0.00    +0.000 OA
ATOM     25  H   UNL     1      45.300   1.870  12.611  0.00  0.00    +0.000 HD
ATOM     26  H   UNL     1      44.761   3.196  11.639  0.00  0.00    +0.000 HD
ENDBRANCH  16  23
ENDBRANCH  15  20
ENDBRANCH   1  15
TORSDOF 5
ENDMDL
MODEL 9
REMARK VINA RESULT:    -6.395      4.700      6.705
REMARK INTER + INTRA:          -8.867
REMARK INTER:                  -8.051
REMARK INTRA:                  -0.816
REMARK UNBOUND:                -0.603
REMARK  Name = 
REMARK  5 active torsions:
REMARK  status: ('A' for Active; 'I' for Inactive)
REMARK    1  A    between atoms: C_2  and  C_4
REMARK    2  A    between atoms: C_8  and  O_9
REMARK    3  A    between atoms: O_9  and  C_10
REMARK    4  A    between atoms: C_10  and  C_11
REMARK    5  A    between atoms: C_15  and  C_16
REMARK                            x       y       z     vdW  Elec       q    Type
REMARK                         _______ _______ _______ _____ _____    ______ ____
ROOT
ATOM      1  C   UNL     1      48.126   5.985  15.088  0.00  0.00    +0.000 C 
ENDROOT
BRANCH   1   2
ATOM      2  C   UNL     1      48.101   5.127  16.328  0.00  0.00    +0.000 A 
ATOM      3  C   UNL     1      47.610   3.819  16.271  0.00  0.00    +0.000 A 
ATOM      4  C   UNL     1      47.656   3.003  17.399  0.00  0.00    +0.000 A 
ATOM      5  C   UNL     1      48.197   3.485  18.592  0.00  0.00    +0.000 A 
ATOM      6  C   UNL     1      48.688   4.793  18.684  0.00  0.00    +0.000 A 
ATOM      7  C   UNL     1      48.612   5.611  17.542  0.00  0.00    +0.000 A 
BRANCH   6   8
ATOM      8  C   UNL     1      49.368   5.338  19.937  0.00  0.00    +0.000 C 
ATOM      9  C   UNL     1      48.703   4.783  21.211  0.00  0.00    +0.000 C 
ATOM     10  C   UNL     1      47.453   5.569  21.606  0.00  0.00    +0.000 C 
ATOM     11  C   UNL     1      47.724   7.071  21.661  0.00  0.00    +0.000 C 
ATOM     12  N   UNL     1      48.267   7.574  20.403  0.00  0.00    +0.000 NA
ATOM     13  C   UNL     1      49.502   6.876  20.025  0.00  0.00    +0.000 C 
ATOM     14  H   UNL     1      48.452   8.573  20.483  0.00  0.00    +0.000 HD
ENDBRANCH   6   8
ENDBRANCH   1   2
BRANCH   1  15
ATOM     15  O   UNL     1      47.891   5.184  13.931  0.00  0.00    +0.000 OA
BRANCH  15  20
ATOM     16  C   UNL     1      44.747   4.675  12.177  0.00  0.00    +0.000 A 
ATOM     17  C   UNL     1      44.467   5.951  11.678  0.00  0.00    +0.000 A 
ATOM     18  C   UNL     1      45.337   7.007  11.936  0.00  0.00    +0.000 A 
ATOM     19  C   UNL     1      46.496   6.793  12.689  0.00  0.00    +0.000 A 
ATOM     20  C   UNL     1      46.791   5.517  13.182  0.00  0.00    +0.000 A 
ATOM     21  C   UNL     1      45.918   4.459  12.914  0.00  0.00    +0.000 A 
BRANCH  16  23
ATOM     22  N   UNL     1      43.943   2.412  12.586  0.00  0.00    +0.000 N 
ATOM     23  C   UNL     1      43.780   3.582  11.899  0.00  0.00    +0.000 C 
ATOM     24  O   UNL     1      42.844   3.733  11.123  0.00  0.00    +0.000 OA
ATOM     25  H   UNL     1      43.214   1.720  12.476  0.00  0.00    +0.000 HD
ATOM     26  H   UNL     1      44.546   2.337  13.392  0.00  0.00    +0.000 HD
ENDBRANCH  16  23
ENDBRANCH  15  20
ENDBRANCH   1  15
TORSDOF 5
ENDMDL
