MODEL 1
REMARK VINA RESULT:    -8.355      0.000      0.000
REMARK INTER + INTRA:         -12.176
REMARK INTER:                 -11.285
REMARK INTRA:                  -0.891
REMARK UNBOUND:                -0.891
REMARK  Name = 
REMARK  9 active torsions:
REMARK  status: ('A' for Active; 'I' for Inactive)
REMARK    1  A    between atoms: C_1  and  C_2
REMARK    2  A    between atoms: C_5  and  C_6
REMARK    3  A    between atoms: C_10  and  C_11
REMARK    4  A    between atoms: C_11  and  C_12
REMARK    5  A    between atoms: C_12  and  C_13
REMARK    6  A    between atoms: C_12  and  O_14
REMARK    7  A    between atoms: O_14  and  C_15
REMARK    8  A    between atoms: C_18  and  C_19
REMARK    9  A    between atoms: C_23  and  C_24
REMARK                            x       y       z     vdW  Elec       q    Type
REMARK                         _______ _______ _______ _____ _____    ______ ____
ROOT
ATOM      1  C   UNL     1      44.239   5.301  11.139  0.00  0.00    +0.000 C 
ATOM      2  C   UNL     1      42.958   5.456  11.971  0.00  0.00    +0.000 C 
ENDROOT
BRANCH   1   3
ATOM      3  C   UNL     1      45.008   6.646  11.090  0.00  0.00    +0.000 C 
BRANCH   3   8
ATOM      4  C   UNL     1      47.690   6.015  13.752  0.00  0.00    +0.000 A 
ATOM      5  C   UNL     1      48.689   6.860  13.252  0.00  0.00    +0.000 A 
ATOM      6  C   UNL     1      48.457   7.557  12.081  0.00  0.00    +0.000 A 
ATOM      7  N   UNL     1      47.306   7.488  11.378  0.00  0.00    +0.000 NA
ATOM      8  C   UNL     1      46.339   6.656  11.828  0.00  0.00    +0.000 A 
ATOM      9  C   UNL     1      46.509   5.900  12.991  0.00  0.00    +0.000 A 
BRANCH   4  14
ATOM     10  C   UNL     1      48.412   3.216  18.660  0.00  0.00    +0.000 C 
ATOM     11  C   UNL     1      48.191   3.975  17.390  0.00  0.00    +0.000 A 
ATOM     12  C   UNL     1      48.985   5.060  17.034  0.00  0.00    +0.000 A 
ATOM     13  N   UNL     1      48.836   5.744  15.867  0.00  0.00    +0.000 NA
ATOM     14  C   UNL     1      47.842   5.321  15.047  0.00  0.00    +0.000 A 
ATOM     15  C   UNL     1      47.044   4.236  15.420  0.00  0.00    +0.000 A 
ATOM     16  N   UNL     1      47.195   3.550  16.582  0.00  0.00    +0.000 NA
ENDBRANCH   4  14
ENDBRANCH   3   8
ENDBRANCH   1   3
BRANCH   1  17
ATOM     17  O   UNL     1      43.808   4.861   9.823  0.00  0.00    +0.000 OA
BRANCH  17  18
ATOM     18  C   UNL     1      44.715   4.064   9.151  0.00  0.00    +0.000 A 
ATOM     19  N   UNL     1      45.493   4.659   8.220  0.00  0.00    +0.000 NA
ATOM     20  C   UNL     1      46.357   3.879   7.529  0.00  0.00    +0.000 A 
ATOM     21  C   UNL     1      46.504   2.513   7.731  0.00  0.00    +0.000 A 
ATOM     22  C   UNL     1      45.684   1.922   8.690  0.00  0.00    +0.000 A 
ATOM     23  C   UNL     1      44.742   2.687   9.398  0.00  0.00    +0.000 A 
ATOM     24  C   UNL     1      43.864   1.991  10.392  0.00  0.00    +0.000 C 
BRANCH  21  25
ATOM     25  C   UNL     1      47.452   1.661   6.973  0.00  0.00    +0.000 C 
ATOM     26  N   UNL     1      48.530   2.242   6.363  0.00  0.00    +0.000 N 
ATOM     27  O   UNL     1      47.280   0.454   6.879  0.00  0.00    +0.000 OA
ATOM     28  H   UNL     1      48.727   3.229   6.320  0.00  0.00    +0.000 HD
ATOM     29  H   UNL     1      49.125   1.624   5.828  0.00  0.00    +0.000 HD
ENDBRANCH  21  25
ENDBRANCH  17  18
ENDBRANCH   1  17
TORSDOF 6
ENDMDL
MODEL 2
REMARK VINA RESULT:    -7.454      1.953      4.295
REMARK INTER + INTRA:         -10.959
REMARK INTER:                  -9.959
REMARK INTRA:                  -1.000
REMARK UNBOUND:                -0.891
REMARK  Name = 
REMARK  9 active torsions:
REMARK  status: ('A' for Active; 'I' for Inactive)
REMARK    1  A    between atoms: C_1  and  C_2
REMARK    2  A    between atoms: C_5  and  C_6
REMARK    3  A    between atoms: C_10  and  C_11
REMARK    4  A    between atoms: C_11  and  C_12
REMARK    5  A    between atoms: C_12  and  C_13
REMARK    6  A    between atoms: C_12  and  O_14
REMARK    7  A    between atoms: O_14  and  C_15
REMARK    8  A    between atoms: C_18  and  C_19
REMARK    9  A    between atoms: C_23  and  C_24
REMARK                            x       y       z     vdW  Elec       q    Type
REMARK                         _______ _______ _______ _____ _____    ______ ____
ROOT
ATOM      1  C   UNL     1      44.158   3.231  11.679  0.00  0.00    +0.000 C 
ATOM      2  C   UNL     1      43.292   2.057  12.160  0.00  0.00    +0.000 C 
ENDROOT
BRANCH   1   3
ATOM      3  C   UNL     1      43.956   4.456  12.608  0.00  0.00    +0.000 C 
BRANCH   3   8
ATOM      4  C   UNL     1      46.970   6.765  13.116  0.00  0.00    +0.000 A 
ATOM      5  C   UNL     1      47.660   6.007  14.072  0.00  0.00    +0.000 A 
ATOM      6  C   UNL     1      47.108   4.820  14.516  0.00  0.00    +0.000 A 
ATOM      7  N   UNL     1      45.931   4.325  14.076  0.00  0.00    +0.000 NA
ATOM      8  C   UNL     1      45.235   5.055  13.174  0.00  0.00    +0.000 A 
ATOM      9  C   UNL     1      45.717   6.277  12.696  0.00  0.00    +0.000 A 
BRANCH   4  14
ATOM     10  C   UNL     1      49.328  11.516  11.040  0.00  0.00    +0.000 C 
ATOM     11  C   UNL     1      48.685  10.264  11.548  0.00  0.00    +0.000 A 
ATOM     12  C   UNL     1      49.294   9.020  11.422  0.00  0.00    +0.000 A 
ATOM     13  N   UNL     1      48.755   7.871  11.911  0.00  0.00    +0.000 NA
ATOM     14  C   UNL     1      47.555   7.989  12.533  0.00  0.00    +0.000 A 
ATOM     15  C   UNL     1      46.949   9.243  12.645  0.00  0.00    +0.000 A 
ATOM     16  N   UNL     1      47.488  10.391  12.162  0.00  0.00    +0.000 NA
ENDBRANCH   4  14
ENDBRANCH   3   8
ENDBRANCH   1   3
BRANCH   1  17
ATOM     17  O   UNL     1      43.745   3.497  10.312  0.00  0.00    +0.000 OA
BRANCH  17  18
ATOM     18  C   UNL     1      44.693   3.205   9.350  0.00  0.00    +0.000 A 
ATOM     19  N   UNL     1      44.806   1.916   8.962  0.00  0.00    +0.000 NA
ATOM     20  C   UNL     1      45.759   1.614   8.049  0.00  0.00    +0.000 A 
ATOM     21  C   UNL     1      46.612   2.549   7.478  0.00  0.00    +0.000 A 
ATOM     22  C   UNL     1      46.482   3.870   7.901  0.00  0.00    +0.000 A 
ATOM     23  C   UNL     1      45.536   4.218   8.880  0.00  0.00    +0.000 A 
ATOM     24  C   UNL     1      45.464   5.648   9.322  0.00  0.00    +0.000 C 
BRANCH  21  25
ATOM     25  C   UNL     1      47.654   2.215   6.476  0.00  0.00    +0.000 C 
ATOM     26  N   UNL     1      47.850   3.052   5.413  0.00  0.00    +0.000 N 
ATOM     27  O   UNL     1      48.331   1.203   6.584  0.00  0.00    +0.000 OA
ATOM     28  H   UNL     1      47.304   3.871   5.193  0.00  0.00    +0.000 HD
ATOM     29  H   UNL     1      48.545   2.761   4.740  0.00  0.00    +0.000 HD
ENDBRANCH  21  25
ENDBRANCH  17  18
ENDBRANCH   1  17
TORSDOF 6
ENDMDL
MODEL 3
REMARK VINA RESULT:    -7.284      2.807      8.045
REMARK INTER + INTRA:         -10.730
REMARK INTER:                 -10.114
REMARK INTRA:                  -0.616
REMARK UNBOUND:                -0.891
REMARK  Name = 
REMARK  9 active torsions:
REMARK  status: ('A' for Active; 'I' for Inactive)
REMARK    1  A    between atoms: C_1  and  C_2
REMARK    2  A    between atoms: C_5  and  C_6
REMARK    3  A    between atoms: C_10  and  C_11
REMARK    4  A    between atoms: C_11  and  C_12
REMARK    5  A    between atoms: C_12  and  C_13
REMARK    6  A    between atoms: C_12  and  O_14
REMARK    7  A    between atoms: O_14  and  C_15
REMARK    8  A    between atoms: C_18  and  C_19
REMARK    9  A    between atoms: C_23  and  C_24
REMARK                            x       y       z     vdW  Elec       q    Type
REMARK                         _______ _______ _______ _____ _____    ______ ____
ROOT
ATOM      1  C   UNL     1      47.638   7.274  12.919  0.00  0.00    +0.000 C 
ATOM      2  C   UNL     1      48.086   8.418  11.997  0.00  0.00    +0.000 C 
ENDROOT
BRANCH   1   3
ATOM      3  C   UNL     1      46.120   7.388  13.210  0.00  0.00    +0.000 C 
BRANCH   3   8
ATOM      4  C   UNL     1      44.894   4.727  10.742  0.00  0.00    +0.000 A 
ATOM      5  C   UNL     1      43.587   4.578  11.223  0.00  0.00    +0.000 A 
ATOM      6  C   UNL     1      43.185   5.314  12.322  0.00  0.00    +0.000 A 
ATOM      7  N   UNL     1      43.978   6.194  12.971  0.00  0.00    +0.000 NA
ATOM      8  C   UNL     1      45.253   6.332  12.540  0.00  0.00    +0.000 A 
ATOM      9  C   UNL     1      45.739   5.604  11.451  0.00  0.00    +0.000 A 
BRANCH   4  14
ATOM     10  C   UNL     1      46.832   2.067   6.094  0.00  0.00    +0.000 C 
ATOM     11  C   UNL     1      46.284   2.772   7.294  0.00  0.00    +0.000 A 
ATOM     12  C   UNL     1      45.743   2.078   8.372  0.00  0.00    +0.000 A 
ATOM     13  N   UNL     1      45.277   2.688   9.495  0.00  0.00    +0.000 NA
ATOM     14  C   UNL     1      45.349   4.042   9.515  0.00  0.00    +0.000 A 
ATOM     15  C   UNL     1      45.885   4.728   8.423  0.00  0.00    +0.000 A 
ATOM     16  N   UNL     1      46.356   4.121   7.304  0.00  0.00    +0.000 NA
ENDBRANCH   4  14
ENDBRANCH   3   8
ENDBRANCH   1   3
BRANCH   1  17
ATOM     17  O   UNL     1      48.444   7.394  14.123  0.00  0.00    +0.000 OA
BRANCH  17  18
ATOM     18  C   UNL     1      48.261   6.384  15.048  0.00  0.00    +0.000 A 
ATOM     19  N   UNL     1      47.734   5.223  14.602  0.00  0.00    +0.000 NA
ATOM     20  C   UNL     1      47.514   4.241  15.508  0.00  0.00    +0.000 A 
ATOM     21  C   UNL     1      47.816   4.349  16.859  0.00  0.00    +0.000 A 
ATOM     22  C   UNL     1      48.351   5.559  17.295  0.00  0.00    +0.000 A 
ATOM     23  C   UNL     1      48.552   6.619  16.396  0.00  0.00    +0.000 A 
ATOM     24  C   UNL     1      49.098   7.909  16.927  0.00  0.00    +0.000 C 
BRANCH  21  25
ATOM     25  C   UNL     1      47.577   3.271  17.850  0.00  0.00    +0.000 C 
ATOM     26  N   UNL     1      48.423   3.145  18.917  0.00  0.00    +0.000 N 
ATOM     27  O   UNL     1      46.643   2.492  17.721  0.00  0.00    +0.000 OA
ATOM     28  H   UNL     1      49.257   3.687  19.080  0.00  0.00    +0.000 HD
ATOM     29  H   UNL     1      48.239   2.373  19.542  0.00  0.00    +0.000 HD
ENDBRANCH  21  25
ENDBRANCH  17  18
ENDBRANCH   1  17
TORSDOF 6
ENDMDL
MODEL 4
REMARK VINA RESULT:    -7.198      3.329      7.329
REMARK INTER + INTRA:         -10.613
REMARK INTER:                  -9.565
REMARK INTRA:                  -1.049
REMARK UNBOUND:                -0.891
REMARK  Name = 
REMARK  9 active torsions:
REMARK  status: ('A' for Active; 'I' for Inactive)
REMARK    1  A    between atoms: C_1  and  C_2
REMARK    2  A    between atoms: C_5  and  C_6
REMARK    3  A    between atoms: C_10  and  C_11
REMARK    4  A    between atoms: C_11  and  C_12
REMARK    5  A    between atoms: C_12  and  C_13
REMARK    6  A    between atoms: C_12  and  O_14
REMARK    7  A    between atoms: O_14  and  C_15
REMARK    8  A    between atoms: C_18  and  C_19
REMARK    9  A    between atoms: C_23  and  C_24
REMARK                            x       y       z     vdW  Elec       q    Type
REMARK                         _______ _______ _______ _____ _____    ______ ____
ROOT
ATOM      1  C   UNL     1      45.166   7.595  11.903  0.00  0.00    +0.000 C 
ATOM      2  C   UNL     1      44.402   8.741  11.223  0.00  0.00    +0.000 C 
ENDROOT
BRANCH   1   3
ATOM      3  C   UNL     1      44.169   6.626  12.589  0.00  0.00    +0.000 C 
BRANCH   3   8
ATOM      4  C   UNL     1      44.781   3.625  10.289  0.00  0.00    +0.000 A 
ATOM      5  C   UNL     1      43.936   2.700  10.917  0.00  0.00    +0.000 A 
ATOM      6  C   UNL     1      43.245   3.081  12.051  0.00  0.00    +0.000 A 
ATOM      7  N   UNL     1      43.320   4.313  12.601  0.00  0.00    +0.000 NA
ATOM      8  C   UNL     1      44.152   5.212  12.028  0.00  0.00    +0.000 A 
ATOM      9  C   UNL     1      44.903   4.892  10.893  0.00  0.00    +0.000 A 
BRANCH   4  14
ATOM     10  C   UNL     1      47.609   2.423   5.493  0.00  0.00    +0.000 C 
ATOM     11  C   UNL     1      46.829   2.735   6.731  0.00  0.00    +0.000 A 
ATOM     12  C   UNL     1      46.494   1.754   7.657  0.00  0.00    +0.000 A 
ATOM     13  N   UNL     1      45.822   2.014   8.812  0.00  0.00    +0.000 NA
ATOM     14  C   UNL     1      45.468   3.306   9.021  0.00  0.00    +0.000 A 
ATOM     15  C   UNL     1      45.802   4.282   8.078  0.00  0.00    +0.000 A 
ATOM     16  N   UNL     1      46.476   4.025   6.929  0.00  0.00    +0.000 NA
ENDBRANCH   4  14
ENDBRANCH   3   8
ENDBRANCH   1   3
BRANCH   1  17
ATOM     17  O   UNL     1      46.068   8.225  12.851  0.00  0.00    +0.000 OA
BRANCH  17  18
ATOM     18  C   UNL     1      47.399   8.222  12.477  0.00  0.00    +0.000 A 
ATOM     19  N   UNL     1      47.877   9.332  11.876  0.00  0.00    +0.000 NA
ATOM     20  C   UNL     1      49.169   9.324  11.471  0.00  0.00    +0.000 A 
ATOM     21  C   UNL     1      50.033   8.252  11.653  0.00  0.00    +0.000 A 
ATOM     22  C   UNL     1      49.513   7.115  12.267  0.00  0.00    +0.000 A 
ATOM     23  C   UNL     1      48.166   7.066  12.662  0.00  0.00    +0.000 A 
ATOM     24  C   UNL     1      47.653   5.804  13.286  0.00  0.00    +0.000 C 
BRANCH  21  25
ATOM     25  C   UNL     1      51.449   8.246  11.210  0.00  0.00    +0.000 C 
ATOM     26  N   UNL     1      51.994   7.085  10.735  0.00  0.00    +0.000 N 
ATOM     27  O   UNL     1      52.133   9.257  11.271  0.00  0.00    +0.000 OA
ATOM     28  H   UNL     1      51.541   6.185  10.707  0.00  0.00    +0.000 HD
ATOM     29  H   UNL     1      52.971   7.123  10.482  0.00  0.00    +0.000 HD
ENDBRANCH  21  25
ENDBRANCH  17  18
ENDBRANCH   1  17
TORSDOF 6
ENDMDL
MODEL 5
REMARK VINA RESULT:    -6.946      2.921      4.277
REMARK INTER + INTRA:         -10.273
REMARK INTER:                 -10.389
REMARK INTRA:                   0.117
REMARK UNBOUND:                -0.891
REMARK  Name = 
REMARK  9 active torsions:
REMARK  status: ('A' for Active; 'I' for Inactive)
REMARK    1  A    between atoms: C_1  and  C_2
REMARK    2  A    between atoms: C_5  and  C_6
REMARK    3  A    between atoms: C_10  and  C_11
REMARK    4  A    between atoms: C_11  and  C_12
REMARK    5  A    between atoms: C_12  and  C_13
REMARK    6  A    between atoms: C_12  and  O_14
REMARK    7  A    between atoms: O_14  and  C_15
REMARK    8  A    between atoms: C_18  and  C_19
REMARK    9  A    between atoms: C_23  and  C_24
REMARK                            x       y       z     vdW  Elec       q    Type
REMARK                         _______ _______ _______ _____ _____    ______ ____
ROOT
ATOM      1  C   UNL     1      44.314   4.504  11.473  0.00  0.00    +0.000 C 
ATOM      2  C   UNL     1      43.124   5.182  12.167  0.00  0.00    +0.000 C 
ENDROOT
BRANCH   1   3
ATOM      3  C   UNL     1      45.632   4.865  12.204  0.00  0.00    +0.000 C 
BRANCH   3   8
ATOM      4  C   UNL     1      47.608   8.135  11.931  0.00  0.00    +0.000 A 
ATOM      5  C   UNL     1      46.644   9.010  12.448  0.00  0.00    +0.000 A 
ATOM      6  C   UNL     1      45.413   8.508  12.826  0.00  0.00    +0.000 A 
ATOM      7  N   UNL     1      45.072   7.204  12.740  0.00  0.00    +0.000 NA
ATOM      8  C   UNL     1      45.978   6.347  12.216  0.00  0.00    +0.000 A 
ATOM      9  C   UNL     1      47.236   6.784  11.790  0.00  0.00    +0.000 A 
BRANCH   4  14
ATOM     10  C   UNL     1      52.820   9.907  10.470  0.00  0.00    +0.000 C 
ATOM     11  C   UNL     1      51.464   9.441  10.896  0.00  0.00    +0.000 A 
ATOM     12  C   UNL     1      50.416  10.328  11.115  0.00  0.00    +0.000 A 
ATOM     13  N   UNL     1      49.161   9.932  11.461  0.00  0.00    +0.000 NA
ATOM     14  C   UNL     1      48.973   8.597  11.604  0.00  0.00    +0.000 A 
ATOM     15  C   UNL     1      50.036   7.715  11.390  0.00  0.00    +0.000 A 
ATOM     16  N   UNL     1      51.287   8.109  11.039  0.00  0.00    +0.000 NA
ENDBRANCH   4  14
ENDBRANCH   3   8
ENDBRANCH   1   3
BRANCH   1  17
ATOM     17  O   UNL     1      44.294   4.975  10.099  0.00  0.00    +0.000 OA
BRANCH  17  18
ATOM     18  C   UNL     1      45.114   4.277   9.233  0.00  0.00    +0.000 A 
ATOM     19  N   UNL     1      45.937   4.997   8.440  0.00  0.00    +0.000 NA
ATOM     20  C   UNL     1      46.715   4.324   7.561  0.00  0.00    +0.000 A 
ATOM     21  C   UNL     1      46.732   2.941   7.439  0.00  0.00    +0.000 A 
ATOM     22  C   UNL     1      45.868   2.221   8.262  0.00  0.00    +0.000 A 
ATOM     23  C   UNL     1      45.011   2.883   9.156  0.00  0.00    +0.000 A 
ATOM     24  C   UNL     1      44.079   2.060   9.991  0.00  0.00    +0.000 C 
BRANCH  21  25
ATOM     25  C   UNL     1      47.587   2.205   6.476  0.00  0.00    +0.000 C 
ATOM     26  N   UNL     1      48.141   2.880   5.424  0.00  0.00    +0.000 N 
ATOM     27  O   UNL     1      47.794   1.006   6.605  0.00  0.00    +0.000 OA
ATOM     28  H   UNL     1      47.980   3.846   5.188  0.00  0.00    +0.000 HD
ATOM     29  H   UNL     1      48.684   2.326   4.776  0.00  0.00    +0.000 HD
ENDBRANCH  21  25
ENDBRANCH  17  18
ENDBRANCH   1  17
TORSDOF 6
ENDMDL
MODEL 6
REMARK VINA RESULT:    -6.932      3.176      7.853
REMARK INTER + INTRA:         -10.254
REMARK INTER:                  -9.188
REMARK INTRA:                  -1.066
REMARK UNBOUND:                -0.891
REMARK  Name = 
REMARK  9 active torsions:
REMARK  status: ('A' for Active; 'I' for Inactive)
REMARK    1  A    between atoms: C_1  and  C_2
REMARK    2  A    between atoms: C_5  and  C_6
REMARK    3  A    between atoms: C_10  and  C_11
REMARK    4  A    between atoms: C_11  and  C_12
REMARK    5  A    between atoms: C_12  and  C_13
REMARK    6  A    between atoms: C_12  and  O_14
REMARK    7  A    between atoms: O_14  and  C_15
REMARK    8  A    between atoms: C_18  and  C_19
REMARK    9  A    between atoms: C_23  and  C_24
REMARK                            x       y       z     vdW  Elec       q    Type
REMARK                         _______ _______ _______ _____ _____    ______ ____
ROOT
ATOM      1  C   UNL     1      49.810   7.747  13.659  0.00  0.00    +0.000 C 
ATOM      2  C   UNL     1      51.242   8.264  13.862  0.00  0.00    +0.000 C 
ENDROOT
BRANCH   1   3
ATOM      3  C   UNL     1      49.156   8.455  12.445  0.00  0.00    +0.000 C 
BRANCH   3   8
ATOM      4  C   UNL     1      45.942   6.643  11.412  0.00  0.00    +0.000 A 
ATOM      5  C   UNL     1      45.028   7.676  11.659  0.00  0.00    +0.000 A 
ATOM      6  C   UNL     1      45.488   8.876  12.166  0.00  0.00    +0.000 A 
ATOM      7  N   UNL     1      46.786   9.133  12.435  0.00  0.00    +0.000 NA
ATOM      8  C   UNL     1      47.682   8.140  12.231  0.00  0.00    +0.000 A 
ATOM      9  C   UNL     1      47.289   6.890  11.743  0.00  0.00    +0.000 A 
BRANCH   4  14
ATOM     10  C   UNL     1      44.521   1.687   8.991  0.00  0.00    +0.000 C 
ATOM     11  C   UNL     1      44.853   3.004   9.620  0.00  0.00    +0.000 A 
ATOM     12  C   UNL     1      44.802   3.196  10.996  0.00  0.00    +0.000 A 
ATOM     13  N   UNL     1      45.139   4.368  11.601  0.00  0.00    +0.000 NA
ATOM     14  C   UNL     1      45.524   5.376  10.779  0.00  0.00    +0.000 A 
ATOM     15  C   UNL     1      45.563   5.174   9.397  0.00  0.00    +0.000 A 
ATOM     16  N   UNL     1      45.232   4.004   8.794  0.00  0.00    +0.000 NA
ENDBRANCH   4  14
ENDBRANCH   3   8
ENDBRANCH   1   3
BRANCH   1  17
ATOM     17  O   UNL     1      49.109   8.017  14.902  0.00  0.00    +0.000 OA
BRANCH  17  18
ATOM     18  C   UNL     1      48.770   6.895  15.634  0.00  0.00    +0.000 A 
ATOM     19  N   UNL     1      48.126   5.901  14.984  0.00  0.00    +0.000 NA
ATOM     20  C   UNL     1      47.755   4.815  15.701  0.00  0.00    +0.000 A 
ATOM     21  C   UNL     1      48.011   4.654  17.056  0.00  0.00    +0.000 A 
ATOM     22  C   UNL     1      48.667   5.697  17.706  0.00  0.00    +0.000 A 
ATOM     23  C   UNL     1      49.030   6.861  17.009  0.00  0.00    +0.000 A 
ATOM     24  C   UNL     1      49.703   7.964  17.767  0.00  0.00    +0.000 C 
BRANCH  21  25
ATOM     25  C   UNL     1      47.604   3.462  17.840  0.00  0.00    +0.000 C 
ATOM     26  N   UNL     1      48.301   3.137  18.970  0.00  0.00    +0.000 N 
ATOM     27  O   UNL     1      46.664   2.765  17.485  0.00  0.00    +0.000 OA
ATOM     28  H   UNL     1      49.129   3.601  19.311  0.00  0.00    +0.000 HD
ATOM     29  H   UNL     1      48.009   2.295  19.447  0.00  0.00    +0.000 HD
ENDBRANCH  21  25
ENDBRANCH  17  18
ENDBRANCH   1  17
TORSDOF 6
ENDMDL
MODEL 7
REMARK VINA RESULT:    -6.921      2.785      7.830
REMARK INTER + INTRA:         -10.239
REMARK INTER:                  -9.200
REMARK INTRA:                  -1.040
REMARK UNBOUND:                -0.891
REMARK  Name = 
REMARK  9 active torsions:
REMARK  status: ('A' for Active; 'I' for Inactive)
REMARK    1  A    between atoms: C_1  and  C_2
REMARK    2  A    between atoms: C_5  and  C_6
REMARK    3  A    between atoms: C_10  and  C_11
REMARK    4  A    between atoms: C_11  and  C_12
REMARK    5  A    between atoms: C_12  and  C_13
REMARK    6  A    between atoms: C_12  and  O_14
REMARK    7  A    between atoms: O_14  and  C_15
REMARK    8  A    between atoms: C_18  and  C_19
REMARK    9  A    between atoms: C_23  and  C_24
REMARK                            x       y       z     vdW  Elec       q    Type
REMARK                         _______ _______ _______ _____ _____    ______ ____
ROOT
ATOM      1  C   UNL     1      46.651   5.300  14.305  0.00  0.00    +0.000 C 
ATOM      2  C   UNL     1      47.740   5.066  15.362  0.00  0.00    +0.000 C 
ENDROOT
BRANCH   1   3
ATOM      3  C   UNL     1      45.867   3.987  14.049  0.00  0.00    +0.000 C 
BRANCH   3   8
ATOM      4  C   UNL     1      44.853   3.678  10.368  0.00  0.00    +0.000 A 
ATOM      5  C   UNL     1      43.542   4.159  10.468  0.00  0.00    +0.000 A 
ATOM      6  C   UNL     1      43.051   4.527  11.706  0.00  0.00    +0.000 A 
ATOM      7  N   UNL     1      43.767   4.463  12.850  0.00  0.00    +0.000 NA
ATOM      8  C   UNL     1      45.027   3.974  12.780  0.00  0.00    +0.000 A 
ATOM      9  C   UNL     1      45.584   3.560  11.567  0.00  0.00    +0.000 A 
BRANCH   4  14
ATOM     10  C   UNL     1      47.390   2.487   5.409  0.00  0.00    +0.000 C 
ATOM     11  C   UNL     1      46.685   2.798   6.692  0.00  0.00    +0.000 A 
ATOM     12  C   UNL     1      46.379   1.810   7.622  0.00  0.00    +0.000 A 
ATOM     13  N   UNL     1      45.777   2.067   8.815  0.00  0.00    +0.000 NA
ATOM     14  C   UNL     1      45.464   3.364   9.060  0.00  0.00    +0.000 A 
ATOM     15  C   UNL     1      45.767   4.346   8.114  0.00  0.00    +0.000 A 
ATOM     16  N   UNL     1      46.372   4.091   6.926  0.00  0.00    +0.000 NA
ENDBRANCH   4  14
ENDBRANCH   3   8
ENDBRANCH   1   3
BRANCH   1  17
ATOM     17  O   UNL     1      47.344   5.772  13.118  0.00  0.00    +0.000 OA
BRANCH  17  18
ATOM     18  C   UNL     1      47.092   7.089  12.783  0.00  0.00    +0.000 A 
ATOM     19  N   UNL     1      45.814   7.518  12.872  0.00  0.00    +0.000 NA
ATOM     20  C   UNL     1      45.552   8.795  12.508  0.00  0.00    +0.000 A 
ATOM     21  C   UNL     1      46.516   9.692  12.068  0.00  0.00    +0.000 A 
ATOM     22  C   UNL     1      47.825   9.222  11.977  0.00  0.00    +0.000 A 
ATOM     23  C   UNL     1      48.133   7.891  12.301  0.00  0.00    +0.000 A 
ATOM     24  C   UNL     1      49.550   7.431  12.150  0.00  0.00    +0.000 C 
BRANCH  21  25
ATOM     25  C   UNL     1      46.226  11.092  11.671  0.00  0.00    +0.000 C 
ATOM     26  N   UNL     1      45.072  11.683  12.106  0.00  0.00    +0.000 N 
ATOM     27  O   UNL     1      46.997  11.717  10.957  0.00  0.00    +0.000 OA
ATOM     28  H   UNL     1      44.341  11.237  12.637  0.00  0.00    +0.000 HD
ATOM     29  H   UNL     1      44.903  12.624  11.778  0.00  0.00    +0.000 HD
ENDBRANCH  21  25
ENDBRANCH  17  18
ENDBRANCH   1  17
TORSDOF 6
ENDMDL
MODEL 8
REMARK VINA RESULT:    -6.870      3.748      6.155
REMARK INTER + INTRA:         -10.171
REMARK INTER:                  -9.074
REMARK INTRA:                  -1.097
REMARK UNBOUND:                -0.891
REMARK  Name = 
REMARK  9 active torsions:
REMARK  status: ('A' for Active; 'I' for Inactive)
REMARK    1  A    between atoms: C_1  and  C_2
REMARK    2  A    between atoms: C_5  and  C_6
REMARK    3  A    between atoms: C_10  and  C_11
REMARK    4  A    between atoms: C_11  and  C_12
REMARK    5  A    between atoms: C_12  and  C_13
REMARK    6  A    between atoms: C_12  and  O_14
REMARK    7  A    between atoms: O_14  and  C_15
REMARK    8  A    between atoms: C_18  and  C_19
REMARK    9  A    between atoms: C_23  and  C_24
REMARK                            x       y       z     vdW  Elec       q    Type
REMARK                         _______ _______ _______ _____ _____    ______ ____
ROOT
ATOM      1  C   UNL     1      48.693   7.260  14.779  0.00  0.00    +0.000 C 
ATOM      2  C   UNL     1      50.038   7.663  14.156  0.00  0.00    +0.000 C 
ENDROOT
BRANCH   1   3
ATOM      3  C   UNL     1      48.825   7.179  16.321  0.00  0.00    +0.000 C 
BRANCH   3   8
ATOM      4  C   UNL     1      49.869   3.699  17.537  0.00  0.00    +0.000 A 
ATOM      5  C   UNL     1      48.594   3.159  17.755  0.00  0.00    +0.000 A 
ATOM      6  C   UNL     1      47.481   3.946  17.528  0.00  0.00    +0.000 A 
ATOM      7  N   UNL     1      47.538   5.223  17.091  0.00  0.00    +0.000 NA
ATOM      8  C   UNL     1      48.759   5.773  16.901  0.00  0.00    +0.000 A 
ATOM      9  C   UNL     1      49.931   5.047  17.133  0.00  0.00    +0.000 A 
BRANCH   4  14
ATOM     10  C   UNL     1      54.509   0.469  18.225  0.00  0.00    +0.000 C 
ATOM     11  C   UNL     1      53.307   1.331  18.006  0.00  0.00    +0.000 A 
ATOM     12  C   UNL     1      52.133   0.831  17.452  0.00  0.00    +0.000 A 
ATOM     13  N   UNL     1      51.009   1.579  17.280  0.00  0.00    +0.000 NA
ATOM     14  C   UNL     1      51.089   2.877  17.667  0.00  0.00    +0.000 A 
ATOM     15  C   UNL     1      52.276   3.370  18.213  0.00  0.00    +0.000 A 
ATOM     16  N   UNL     1      53.396   2.623  18.391  0.00  0.00    +0.000 NA
ENDBRANCH   4  14
ENDBRANCH   3   8
ENDBRANCH   1   3
BRANCH   1  17
ATOM     17  O   UNL     1      48.346   5.981  14.184  0.00  0.00    +0.000 OA
BRANCH  17  18
ATOM     18  C   UNL     1      47.113   5.945  13.560  0.00  0.00    +0.000 A 
ATOM     19  N   UNL     1      46.588   7.121  13.156  0.00  0.00    +0.000 NA
ATOM     20  C   UNL     1      45.363   7.101  12.580  0.00  0.00    +0.000 A 
ATOM     21  C   UNL     1      44.626   5.944  12.364  0.00  0.00    +0.000 A 
ATOM     22  C   UNL     1      45.186   4.744  12.797  0.00  0.00    +0.000 A 
ATOM     23  C   UNL     1      46.434   4.727  13.441  0.00  0.00    +0.000 A 
ATOM     24  C   UNL     1      46.971   3.412  13.917  0.00  0.00    +0.000 C 
BRANCH  21  25
ATOM     25  C   UNL     1      43.285   5.924  11.730  0.00  0.00    +0.000 C 
ATOM     26  N   UNL     1      42.792   7.071  11.174  0.00  0.00    +0.000 N 
ATOM     27  O   UNL     1      42.614   4.901  11.707  0.00  0.00    +0.000 OA
ATOM     28  H   UNL     1      43.230   7.978  11.199  0.00  0.00    +0.000 HD
ATOM     29  H   UNL     1      41.859   7.014  10.789  0.00  0.00    +0.000 HD
ENDBRANCH  21  25
ENDBRANCH  17  18
ENDBRANCH   1  17
TORSDOF 6
ENDMDL
MODEL 9
REMARK VINA RESULT:    -6.752      4.027      7.894
REMARK INTER + INTRA:         -10.011
REMARK INTER:                  -9.012
REMARK INTRA:                  -1.000
REMARK UNBOUND:                -0.891
REMARK  Name = 
REMARK  9 active torsions:
REMARK  status: ('A' for Active; 'I' for Inactive)
REMARK    1  A    between atoms: C_1  and  C_2
REMARK    2  A    between atoms: C_5  and  C_6
REMARK    3  A    between atoms: C_10  and  C_11
REMARK    4  A    between atoms: C_11  and  C_12
REMARK    5  A    between atoms: C_12  and  C_13
REMARK    6  A    between atoms: C_12  and  O_14
REMARK    7  A    between atoms: O_14  and  C_15
REMARK    8  A    between atoms: C_18  and  C_19
REMARK    9  A    between atoms: C_23  and  C_24
REMARK                            x       y       z     vdW  Elec       q    Type
REMARK                         _______ _______ _______ _____ _____    ______ ____
ROOT
ATOM      1  C   UNL     1      49.666   7.169  17.044  0.00  0.00    +0.000 C 
ATOM      2  C   UNL     1      48.668   8.334  17.114  0.00  0.00    +0.000 C 
ENDROOT
BRANCH   1   3
ATOM      3  C   UNL     1      50.178   6.994  15.591  0.00  0.00    +0.000 C 
BRANCH   3   8
ATOM      4  C   UNL     1      47.297   6.618  13.094  0.00  0.00    +0.000 A 
ATOM      5  C   UNL     1      47.460   7.823  12.398  0.00  0.00    +0.000 A 
ATOM      6  C   UNL     1      48.460   8.694  12.785  0.00  0.00    +0.000 A 
ATOM      7  N   UNL     1      49.317   8.455  13.802  0.00  0.00    +0.000 NA
ATOM      8  C   UNL     1      49.158   7.310  14.506  0.00  0.00    +0.000 A 
ATOM      9  C   UNL     1      48.154   6.391  14.189  0.00  0.00    +0.000 A 
BRANCH   4  14
ATOM     10  C   UNL     1      43.347   2.838  11.496  0.00  0.00    +0.000 C 
ATOM     11  C   UNL     1      44.416   3.802  11.905  0.00  0.00    +0.000 A 
ATOM     12  C   UNL     1      44.886   4.788  11.045  0.00  0.00    +0.000 A 
ATOM     13  N   UNL     1      45.826   5.706  11.402  0.00  0.00    +0.000 NA
ATOM     14  C   UNL     1      46.312   5.605  12.664  0.00  0.00    +0.000 A 
ATOM     15  C   UNL     1      45.839   4.604  13.516  0.00  0.00    +0.000 A 
ATOM     16  N   UNL     1      44.897   3.692  13.163  0.00  0.00    +0.000 NA
ENDBRANCH   4  14
ENDBRANCH   3   8
ENDBRANCH   1   3
BRANCH   1  17
ATOM     17  O   UNL     1      48.949   6.000  17.524  0.00  0.00    +0.000 OA
BRANCH  17  18
ATOM     18  C   UNL     1      49.699   4.840  17.579  0.00  0.00    +0.000 A 
ATOM     19  N   UNL     1      50.982   4.950  17.986  0.00  0.00    +0.000 NA
ATOM     20  C   UNL     1      51.736   3.826  18.006  0.00  0.00    +0.000 A 
ATOM     21  C   UNL     1      51.265   2.569  17.652  0.00  0.00    +0.000 A 
ATOM     22  C   UNL     1      49.941   2.483  17.227  0.00  0.00    +0.000 A 
ATOM     23  C   UNL     1      49.138   3.633  17.149  0.00  0.00    +0.000 A 
ATOM     24  C   UNL     1      47.732   3.487  16.651  0.00  0.00    +0.000 C 
BRANCH  21  25
ATOM     25  C   UNL     1      52.092   1.338  17.676  0.00  0.00    +0.000 C 
ATOM     26  N   UNL     1      51.541   0.172  18.130  0.00  0.00    +0.000 N 
ATOM     27  O   UNL     1      53.257   1.353  17.305  0.00  0.00    +0.000 OA
ATOM     28  H   UNL     1      50.618   0.065  18.521  0.00  0.00    +0.000 HD
ATOM     29  H   UNL     1      52.157  -0.629  18.162  0.00  0.00    +0.000 HD
ENDBRANCH  21  25
ENDBRANCH  17  18
ENDBRANCH   1  17
TORSDOF 6
ENDMDL
