MODEL 1
REMARK VINA RESULT:    -8.774      0.000      0.000
REMARK INTER + INTRA:         -13.027
REMARK INTER:                 -11.852
REMARK INTRA:                  -1.175
REMARK UNBOUND:                -1.175
REMARK  Name = 
REMARK  7 active torsions:
REMARK  status: ('A' for Active; 'I' for Inactive)
REMARK    1  A    between atoms: C_1  and  C_2
REMARK    2  A    between atoms: C_2  and  C_3
REMARK    3  A    between atoms: C_3  and  N_4
REMARK    4  A    between atoms: C_3  and  C_17
REMARK    5  A    between atoms: C_5  and  C_7
REMARK    6  A    between atoms: C_20  and  C_21
REMARK    7  A    between atoms: C_21  and  C_22
REMARK                            x       y       z     vdW  Elec       q    Type
REMARK                         _______ _______ _______ _____ _____    ______ ____
ROOT
ATOM      1  C   UNL     1      46.438   7.848  12.600  0.00  0.00    +0.000 C 
ENDROOT
BRANCH   1   2
ATOM      2  C   UNL     1      45.940   6.663  11.777  0.00  0.00    +0.000 A 
ATOM      3  C   UNL     1      44.984   5.790  12.315  0.00  0.00    +0.000 A 
ATOM      4  C   UNL     1      44.487   4.717  11.563  0.00  0.00    +0.000 A 
ATOM      5  C   UNL     1      44.926   4.492  10.252  0.00  0.00    +0.000 A 
ATOM      6  C   UNL     1      45.877   5.366   9.709  0.00  0.00    +0.000 A 
ATOM      7  C   UNL     1      46.380   6.433  10.463  0.00  0.00    +0.000 A 
BRANCH   5   8
ATOM      8  C   UNL     1      44.382   3.339   9.438  0.00  0.00    +0.000 C 
BRANCH   8   9
ATOM      9  C   UNL     1      45.343   2.782   8.412  0.00  0.00    +0.000 A 
ATOM     10  C   UNL     1      45.697   3.531   7.282  0.00  0.00    +0.000 A 
ATOM     11  C   UNL     1      46.587   3.017   6.335  0.00  0.00    +0.000 A 
ATOM     12  C   UNL     1      47.132   1.746   6.506  0.00  0.00    +0.000 A 
ATOM     13  C   UNL     1      46.791   0.991   7.627  0.00  0.00    +0.000 A 
ATOM     14  C   UNL     1      45.899   1.503   8.572  0.00  0.00    +0.000 A 
ENDBRANCH   8   9
ENDBRANCH   5   8
ENDBRANCH   1   2
BRANCH   1  15
ATOM     15  N   UNL     1      46.998   7.352  13.847  0.00  0.00    +0.000 N 
ATOM     16  C   UNL     1      48.243   6.799  13.973  0.00  0.00    +0.000 C 
ATOM     17  O   UNL     1      49.024   6.702  13.031  0.00  0.00    +0.000 OA
ATOM     18  H   UNL     1      46.361   7.318  14.635  0.00  0.00    +0.000 HD
BRANCH  16  19
ATOM     19  C   UNL     1      48.611   6.358  15.327  0.00  0.00    +0.000 A 
ATOM     20  C   UNL     1      49.559   7.055  16.061  0.00  0.00    +0.000 A 
ATOM     21  S   UNL     1      49.851   6.389  17.607  0.00  0.00    +0.000 S 
ATOM     22  C   UNL     1      48.755   5.115  17.327  0.00  0.00    +0.000 A 
ATOM     23  N   UNL     1      48.557   4.138  18.253  0.00  0.00    +0.000 NA
ATOM     24  C   UNL     1      47.733   3.214  17.888  0.00  0.00    +0.000 A 
ATOM     25  N   UNL     1      47.077   3.189  16.685  0.00  0.00    +0.000 N 
ATOM     26  C   UNL     1      47.175   4.196  15.766  0.00  0.00    +0.000 A 
ATOM     27  O   UNL     1      46.448   4.223  14.781  0.00  0.00    +0.000 OA
ATOM     28  C   UNL     1      48.145   5.226  16.093  0.00  0.00    +0.000 A 
ATOM     29  H   UNL     1      46.406   2.458  16.471  0.00  0.00    +0.000 HD
ENDBRANCH  16  19
ENDBRANCH   1  15
BRANCH   1  31
ATOM     30  C   UNL     1      44.792   9.575  11.656  0.00  0.00    +0.000 C 
ATOM     31  C   UNL     1      45.339   8.887  12.899  0.00  0.00    +0.000 C 
ENDBRANCH   1  31
TORSDOF 6
ENDMDL
MODEL 2
REMARK VINA RESULT:    -8.124      1.646      2.337
REMARK INTER + INTRA:         -12.149
REMARK INTER:                 -11.067
REMARK INTRA:                  -1.082
REMARK UNBOUND:                -1.175
REMARK  Name = 
REMARK  7 active torsions:
REMARK  status: ('A' for Active; 'I' for Inactive)
REMARK    1  A    between atoms: C_1  and  C_2
REMARK    2  A    between atoms: C_2  and  C_3
REMARK    3  A    between atoms: C_3  and  N_4
REMARK    4  A    between atoms: C_3  and  C_17
REMARK    5  A    between atoms: C_5  and  C_7
REMARK    6  A    between atoms: C_20  and  C_21
REMARK    7  A    between atoms: C_21  and  C_22
REMARK                            x       y       z     vdW  Elec       q    Type
REMARK                         _______ _______ _______ _____ _____    ______ ____
ROOT
ATOM      1  C   UNL     1      46.779   6.843  13.050  0.00  0.00    +0.000 C 
ENDROOT
BRANCH   1   2
ATOM      2  C   UNL     1      46.170   5.874  12.041  0.00  0.00    +0.000 A 
ATOM      3  C   UNL     1      46.085   6.234  10.688  0.00  0.00    +0.000 A 
ATOM      4  C   UNL     1      45.561   5.346   9.740  0.00  0.00    +0.000 A 
ATOM      5  C   UNL     1      45.116   4.072  10.116  0.00  0.00    +0.000 A 
ATOM      6  C   UNL     1      45.206   3.706  11.466  0.00  0.00    +0.000 A 
ATOM      7  C   UNL     1      45.721   4.597  12.414  0.00  0.00    +0.000 A 
BRANCH   5   8
ATOM      8  C   UNL     1      44.561   3.109   9.089  0.00  0.00    +0.000 C 
BRANCH   8   9
ATOM      9  C   UNL     1      45.572   2.611   8.080  0.00  0.00    +0.000 A 
ATOM     10  C   UNL     1      45.950   3.410   6.992  0.00  0.00    +0.000 A 
ATOM     11  C   UNL     1      46.885   2.950   6.060  0.00  0.00    +0.000 A 
ATOM     12  C   UNL     1      47.452   1.686   6.205  0.00  0.00    +0.000 A 
ATOM     13  C   UNL     1      47.088   0.882   7.285  0.00  0.00    +0.000 A 
ATOM     14  C   UNL     1      46.150   1.340   8.214  0.00  0.00    +0.000 A 
ENDBRANCH   8   9
ENDBRANCH   5   8
ENDBRANCH   1   2
BRANCH   1  15
ATOM     15  N   UNL     1      46.963   6.149  14.315  0.00  0.00    +0.000 N 
ATOM     16  C   UNL     1      48.165   5.998  14.950  0.00  0.00    +0.000 C 
ATOM     17  O   UNL     1      49.209   6.474  14.514  0.00  0.00    +0.000 OA
ATOM     18  H   UNL     1      46.152   5.655  14.670  0.00  0.00    +0.000 HD
BRANCH  16  19
ATOM     19  C   UNL     1      48.127   5.258  16.220  0.00  0.00    +0.000 A 
ATOM     20  C   UNL     1      47.737   3.927  16.249  0.00  0.00    +0.000 A 
ATOM     21  S   UNL     1      47.755   3.244  17.815  0.00  0.00    +0.000 S 
ATOM     22  C   UNL     1      48.235   4.721  18.515  0.00  0.00    +0.000 A 
ATOM     23  N   UNL     1      48.393   4.846  19.861  0.00  0.00    +0.000 NA
ATOM     24  C   UNL     1      48.716   6.032  20.254  0.00  0.00    +0.000 A 
ATOM     25  N   UNL     1      48.912   7.101  19.419  0.00  0.00    +0.000 N 
ATOM     26  C   UNL     1      48.855   6.998  18.057  0.00  0.00    +0.000 A 
ATOM     27  O   UNL     1      49.199   7.929  17.340  0.00  0.00    +0.000 OA
ATOM     28  C   UNL     1      48.423   5.703  17.562  0.00  0.00    +0.000 A 
ATOM     29  H   UNL     1      49.208   8.001  19.783  0.00  0.00    +0.000 HD
ENDBRANCH  16  19
ENDBRANCH   1  15
BRANCH   1  31
ATOM     30  C   UNL     1      46.466   9.341  12.554  0.00  0.00    +0.000 C 
ATOM     31  C   UNL     1      45.928   8.109  13.270  0.00  0.00    +0.000 C 
ENDBRANCH   1  31
TORSDOF 6
ENDMDL
MODEL 3
REMARK VINA RESULT:    -7.813      2.047      2.669
REMARK INTER + INTRA:         -11.729
REMARK INTER:                 -10.497
REMARK INTRA:                  -1.232
REMARK UNBOUND:                -1.175
REMARK  Name = 
REMARK  7 active torsions:
REMARK  status: ('A' for Active; 'I' for Inactive)
REMARK    1  A    between atoms: C_1  and  C_2
REMARK    2  A    between atoms: C_2  and  C_3
REMARK    3  A    between atoms: C_3  and  N_4
REMARK    4  A    between atoms: C_3  and  C_17
REMARK    5  A    between atoms: C_5  and  C_7
REMARK    6  A    between atoms: C_20  and  C_21
REMARK    7  A    between atoms: C_21  and  C_22
REMARK                            x       y       z     vdW  Elec       q    Type
REMARK                         _______ _______ _______ _____ _____    ______ ____
ROOT
ATOM      1  C   UNL     1      47.688   7.115  13.615  0.00  0.00    +0.000 C 
ENDROOT
BRANCH   1   2
ATOM      2  C   UNL     1      46.815   6.298  12.667  0.00  0.00    +0.000 A 
ATOM      3  C   UNL     1      46.593   6.746  11.358  0.00  0.00    +0.000 A 
ATOM      4  C   UNL     1      45.823   5.993  10.461  0.00  0.00    +0.000 A 
ATOM      5  C   UNL     1      45.263   4.769  10.846  0.00  0.00    +0.000 A 
ATOM      6  C   UNL     1      45.488   4.314  12.152  0.00  0.00    +0.000 A 
ATOM      7  C   UNL     1      46.249   5.070  13.051  0.00  0.00    +0.000 A 
BRANCH   5   8
ATOM      8  C   UNL     1      44.441   3.952   9.873  0.00  0.00    +0.000 C 
BRANCH   8   9
ATOM      9  C   UNL     1      45.249   3.225   8.820  0.00  0.00    +0.000 A 
ATOM     10  C   UNL     1      45.764   3.912   7.713  0.00  0.00    +0.000 A 
ATOM     11  C   UNL     1      46.512   3.241   6.741  0.00  0.00    +0.000 A 
ATOM     12  C   UNL     1      46.752   1.875   6.865  0.00  0.00    +0.000 A 
ATOM     13  C   UNL     1      46.249   1.179   7.963  0.00  0.00    +0.000 A 
ATOM     14  C   UNL     1      45.498   1.849   8.933  0.00  0.00    +0.000 A 
ENDBRANCH   8   9
ENDBRANCH   5   8
ENDBRANCH   1   2
BRANCH   1  15
ATOM     15  N   UNL     1      47.717   6.457  14.911  0.00  0.00    +0.000 N 
ATOM     16  C   UNL     1      48.842   6.295  15.674  0.00  0.00    +0.000 C 
ATOM     17  O   UNL     1      49.939   6.730  15.338  0.00  0.00    +0.000 OA
ATOM     18  H   UNL     1      46.860   5.995  15.192  0.00  0.00    +0.000 HD
BRANCH  16  19
ATOM     19  C   UNL     1      48.648   5.596  16.954  0.00  0.00    +0.000 A 
ATOM     20  C   UNL     1      48.741   4.214  17.023  0.00  0.00    +0.000 A 
ATOM     21  S   UNL     1      48.485   3.590  18.593  0.00  0.00    +0.000 S 
ATOM     22  C   UNL     1      48.189   5.145  19.224  0.00  0.00    +0.000 A 
ATOM     23  N   UNL     1      47.855   5.325  20.530  0.00  0.00    +0.000 NA
ATOM     24  C   UNL     1      47.617   6.551  20.858  0.00  0.00    +0.000 A 
ATOM     25  N   UNL     1      47.698   7.614  19.999  0.00  0.00    +0.000 N 
ATOM     26  C   UNL     1      48.119   7.491  18.704  0.00  0.00    +0.000 A 
ATOM     27  O   UNL     1      48.341   8.479  18.017  0.00  0.00    +0.000 OA
ATOM     28  C   UNL     1      48.331   6.124  18.260  0.00  0.00    +0.000 A 
ATOM     29  H   UNL     1      47.542   8.562  20.324  0.00  0.00    +0.000 HD
ENDBRANCH  16  19
ENDBRANCH   1  15
BRANCH   1  31
ATOM     30  C   UNL     1      48.155   9.600  13.179  0.00  0.00    +0.000 C 
ATOM     31  C   UNL     1      47.209   8.571  13.782  0.00  0.00    +0.000 C 
ENDBRANCH   1  31
TORSDOF 6
ENDMDL
MODEL 4
REMARK VINA RESULT:    -7.680      2.585      4.072
REMARK INTER + INTRA:         -11.549
REMARK INTER:                 -10.279
REMARK INTRA:                  -1.270
REMARK UNBOUND:                -1.175
REMARK  Name = 
REMARK  7 active torsions:
REMARK  status: ('A' for Active; 'I' for Inactive)
REMARK    1  A    between atoms: C_1  and  C_2
REMARK    2  A    between atoms: C_2  and  C_3
REMARK    3  A    between atoms: C_3  and  N_4
REMARK    4  A    between atoms: C_3  and  C_17
REMARK    5  A    between atoms: C_5  and  C_7
REMARK    6  A    between atoms: C_20  and  C_21
REMARK    7  A    between atoms: C_21  and  C_22
REMARK                            x       y       z     vdW  Elec       q    Type
REMARK                         _______ _______ _______ _____ _____    ______ ____
ROOT
ATOM      1  C   UNL     1      46.705   5.476  14.063  0.00  0.00    +0.000 C 
ENDROOT
BRANCH   1   2
ATOM      2  C   UNL     1      46.103   5.003  12.743  0.00  0.00    +0.000 A 
ATOM      3  C   UNL     1      46.156   5.829  11.612  0.00  0.00    +0.000 A 
ATOM      4  C   UNL     1      45.640   5.399  10.383  0.00  0.00    +0.000 A 
ATOM      5  C   UNL     1      45.066   4.129  10.248  0.00  0.00    +0.000 A 
ATOM      6  C   UNL     1      45.017   3.297  11.374  0.00  0.00    +0.000 A 
ATOM      7  C   UNL     1      45.523   3.730  12.605  0.00  0.00    +0.000 A 
BRANCH   5   8
ATOM      8  C   UNL     1      44.519   3.662   8.917  0.00  0.00    +0.000 C 
BRANCH   8   9
ATOM      9  C   UNL     1      45.512   2.915   8.054  0.00  0.00    +0.000 A 
ATOM     10  C   UNL     1      45.912   1.613   8.387  0.00  0.00    +0.000 A 
ATOM     11  C   UNL     1      46.828   0.922   7.589  0.00  0.00    +0.000 A 
ATOM     12  C   UNL     1      47.356   1.524   6.450  0.00  0.00    +0.000 A 
ATOM     13  C   UNL     1      46.965   2.818   6.105  0.00  0.00    +0.000 A 
ATOM     14  C   UNL     1      46.052   3.510   6.904  0.00  0.00    +0.000 A 
ENDBRANCH   8   9
ENDBRANCH   5   8
ENDBRANCH   1   2
BRANCH   1  15
ATOM     15  N   UNL     1      47.895   6.262  13.781  0.00  0.00    +0.000 N 
ATOM     16  C   UNL     1      47.938   7.629  13.770  0.00  0.00    +0.000 C 
ATOM     17  O   UNL     1      46.963   8.325  14.036  0.00  0.00    +0.000 OA
ATOM     18  H   UNL     1      48.704   5.741  13.461  0.00  0.00    +0.000 HD
BRANCH  16  19
ATOM     19  C   UNL     1      49.247   8.224  13.458  0.00  0.00    +0.000 A 
ATOM     20  C   UNL     1      49.384   9.109  12.399  0.00  0.00    +0.000 A 
ATOM     21  S   UNL     1      50.978   9.689  12.195  0.00  0.00    +0.000 S 
ATOM     22  C   UNL     1      51.550   8.735  13.485  0.00  0.00    +0.000 A 
ATOM     23  N   UNL     1      52.867   8.723  13.824  0.00  0.00    +0.000 NA
ATOM     24  C   UNL     1      53.164   7.921  14.792  0.00  0.00    +0.000 A 
ATOM     25  N   UNL     1      52.257   7.142  15.461  0.00  0.00    +0.000 N 
ATOM     26  C   UNL     1      50.913   7.193  15.216  0.00  0.00    +0.000 A 
ATOM     27  O   UNL     1      50.118   6.612  15.944  0.00  0.00    +0.000 OA
ATOM     28  C   UNL     1      50.531   8.024  14.088  0.00  0.00    +0.000 A 
ATOM     29  H   UNL     1      52.543   6.563  16.244  0.00  0.00    +0.000 HD
ENDBRANCH  16  19
ENDBRANCH   1  15
BRANCH   1  31
ATOM     30  C   UNL     1      47.395   4.777  16.434  0.00  0.00    +0.000 C 
ATOM     31  C   UNL     1      47.058   4.321  15.021  0.00  0.00    +0.000 C 
ENDBRANCH   1  31
TORSDOF 6
ENDMDL
MODEL 5
REMARK VINA RESULT:    -7.571      2.318      4.757
REMARK INTER + INTRA:         -11.401
REMARK INTER:                 -11.113
REMARK INTRA:                  -0.288
REMARK UNBOUND:                -1.175
REMARK  Name = 
REMARK  7 active torsions:
REMARK  status: ('A' for Active; 'I' for Inactive)
REMARK    1  A    between atoms: C_1  and  C_2
REMARK    2  A    between atoms: C_2  and  C_3
REMARK    3  A    between atoms: C_3  and  N_4
REMARK    4  A    between atoms: C_3  and  C_17
REMARK    5  A    between atoms: C_5  and  C_7
REMARK    6  A    between atoms: C_20  and  C_21
REMARK    7  A    between atoms: C_21  and  C_22
REMARK                            x       y       z     vdW  Elec       q    Type
REMARK                         _______ _______ _______ _____ _____    ______ ____
ROOT
ATOM      1  C   UNL     1      46.250   5.498  13.822  0.00  0.00    +0.000 C 
ENDROOT
BRANCH   1   2
ATOM      2  C   UNL     1      45.771   4.959  12.477  0.00  0.00    +0.000 A 
ATOM      3  C   UNL     1      45.870   5.756  11.328  0.00  0.00    +0.000 A 
ATOM      4  C   UNL     1      45.469   5.267  10.078  0.00  0.00    +0.000 A 
ATOM      5  C   UNL     1      44.966   3.967   9.941  0.00  0.00    +0.000 A 
ATOM      6  C   UNL     1      44.871   3.165  11.086  0.00  0.00    +0.000 A 
ATOM      7  C   UNL     1      45.263   3.656  12.337  0.00  0.00    +0.000 A 
BRANCH   5   8
ATOM      8  C   UNL     1      44.543   3.438   8.589  0.00  0.00    +0.000 C 
BRANCH   8   9
ATOM      9  C   UNL     1      45.664   2.847   7.763  0.00  0.00    +0.000 A 
ATOM     10  C   UNL     1      46.229   1.610   8.105  0.00  0.00    +0.000 A 
ATOM     11  C   UNL     1      47.265   1.063   7.342  0.00  0.00    +0.000 A 
ATOM     12  C   UNL     1      47.748   1.746   6.228  0.00  0.00    +0.000 A 
ATOM     13  C   UNL     1      47.192   2.976   5.875  0.00  0.00    +0.000 A 
ATOM     14  C   UNL     1      46.160   3.524   6.639  0.00  0.00    +0.000 A 
ENDBRANCH   8   9
ENDBRANCH   5   8
ENDBRANCH   1   2
BRANCH   1  15
ATOM     15  N   UNL     1      46.767   6.843  13.632  0.00  0.00    +0.000 N 
ATOM     16  C   UNL     1      48.037   7.134  13.214  0.00  0.00    +0.000 C 
ATOM     17  O   UNL     1      48.855   6.265  12.925  0.00  0.00    +0.000 OA
ATOM     18  H   UNL     1      46.167   7.596  13.947  0.00  0.00    +0.000 HD
BRANCH  16  19
ATOM     19  C   UNL     1      48.356   8.564  13.090  0.00  0.00    +0.000 A 
ATOM     20  C   UNL     1      49.608   9.041  13.447  0.00  0.00    +0.000 A 
ATOM     21  S   UNL     1      49.784  10.727  13.234  0.00  0.00    +0.000 S 
ATOM     22  C   UNL     1      48.173  10.885  12.704  0.00  0.00    +0.000 A 
ATOM     23  N   UNL     1      47.648  12.101  12.393  0.00  0.00    +0.000 NA
ATOM     24  C   UNL     1      46.403  12.075  12.049  0.00  0.00    +0.000 A 
ATOM     25  N   UNL     1      45.642  10.938  11.973  0.00  0.00    +0.000 N 
ATOM     26  C   UNL     1      46.152   9.688  12.186  0.00  0.00    +0.000 A 
ATOM     27  O   UNL     1      45.490   8.688  11.946  0.00  0.00    +0.000 OA
ATOM     28  C   UNL     1      47.529   9.664  12.648  0.00  0.00    +0.000 A 
ATOM     29  H   UNL     1      44.680  10.974  11.654  0.00  0.00    +0.000 HD
ENDBRANCH  16  19
ENDBRANCH   1  15
BRANCH   1  31
ATOM     30  C   UNL     1      47.051   4.308  15.950  0.00  0.00    +0.000 C 
ATOM     31  C   UNL     1      47.326   4.614  14.484  0.00  0.00    +0.000 C 
ENDBRANCH   1  31
TORSDOF 6
ENDMDL
MODEL 6
REMARK VINA RESULT:    -7.492      3.344      7.632
REMARK INTER + INTRA:         -11.295
REMARK INTER:                  -9.933
REMARK INTRA:                  -1.361
REMARK UNBOUND:                -1.175
REMARK  Name = 
REMARK  7 active torsions:
REMARK  status: ('A' for Active; 'I' for Inactive)
REMARK    1  A    between atoms: C_1  and  C_2
REMARK    2  A    between atoms: C_2  and  C_3
REMARK    3  A    between atoms: C_3  and  N_4
REMARK    4  A    between atoms: C_3  and  C_17
REMARK    5  A    between atoms: C_5  and  C_7
REMARK    6  A    between atoms: C_20  and  C_21
REMARK    7  A    between atoms: C_21  and  C_22
REMARK                            x       y       z     vdW  Elec       q    Type
REMARK                         _______ _______ _______ _____ _____    ______ ____
ROOT
ATOM      1  C   UNL     1      48.458   7.601  12.718  0.00  0.00    +0.000 C 
ENDROOT
BRANCH   1   2
ATOM      2  C   UNL     1      48.821   7.022  14.082  0.00  0.00    +0.000 A 
ATOM      3  C   UNL     1      47.986   6.070  14.684  0.00  0.00    +0.000 A 
ATOM      4  C   UNL     1      48.319   5.500  15.920  0.00  0.00    +0.000 A 
ATOM      5  C   UNL     1      49.499   5.860  16.583  0.00  0.00    +0.000 A 
ATOM      6  C   UNL     1      50.340   6.806  15.982  0.00  0.00    +0.000 A 
ATOM      7  C   UNL     1      50.002   7.382  14.752  0.00  0.00    +0.000 A 
BRANCH   5   8
ATOM      8  C   UNL     1      49.862   5.236  17.913  0.00  0.00    +0.000 C 
BRANCH   8   9
ATOM      9  C   UNL     1      50.679   3.966  17.811  0.00  0.00    +0.000 A 
ATOM     10  C   UNL     1      52.034   3.957  18.168  0.00  0.00    +0.000 A 
ATOM     11  C   UNL     1      52.788   2.783  18.077  0.00  0.00    +0.000 A 
ATOM     12  C   UNL     1      52.195   1.605  17.626  0.00  0.00    +0.000 A 
ATOM     13  C   UNL     1      50.847   1.600  17.271  0.00  0.00    +0.000 A 
ATOM     14  C   UNL     1      50.094   2.773  17.359  0.00  0.00    +0.000 A 
ENDBRANCH   8   9
ENDBRANCH   5   8
ENDBRANCH   1   2
BRANCH   1  15
ATOM     15  N   UNL     1      47.663   6.625  11.990  0.00  0.00    +0.000 N 
ATOM     16  C   UNL     1      46.344   6.787  11.664  0.00  0.00    +0.000 C 
ATOM     17  O   UNL     1      45.715   7.805  11.934  0.00  0.00    +0.000 OA
ATOM     18  H   UNL     1      48.105   5.728  11.827  0.00  0.00    +0.000 HD
BRANCH  16  19
ATOM     19  C   UNL     1      45.729   5.673  10.926  0.00  0.00    +0.000 A 
ATOM     20  C   UNL     1      45.827   5.604   9.544  0.00  0.00    +0.000 A 
ATOM     21  S   UNL     1      45.048   4.240   8.871  0.00  0.00    +0.000 S 
ATOM     22  C   UNL     1      44.509   3.723  10.402  0.00  0.00    +0.000 A 
ATOM     23  N   UNL     1      43.730   2.615  10.539  0.00  0.00    +0.000 NA
ATOM     24  C   UNL     1      43.360   2.368  11.751  0.00  0.00    +0.000 A 
ATOM     25  N   UNL     1      43.712   3.121  12.840  0.00  0.00    +0.000 N 
ATOM     26  C   UNL     1      44.567   4.185  12.761  0.00  0.00    +0.000 A 
ATOM     27  O   UNL     1      44.992   4.728  13.772  0.00  0.00    +0.000 OA
ATOM     28  C   UNL     1      44.957   4.553  11.411  0.00  0.00    +0.000 A 
ATOM     29  H   UNL     1      43.427   2.852  13.776  0.00  0.00    +0.000 HD
ENDBRANCH  16  19
ENDBRANCH   1  15
BRANCH   1  31
ATOM     30  C   UNL     1      49.782   9.495  11.602  0.00  0.00    +0.000 C 
ATOM     31  C   UNL     1      49.688   8.001  11.879  0.00  0.00    +0.000 C 
ENDBRANCH   1  31
TORSDOF 6
ENDMDL
MODEL 7
REMARK VINA RESULT:    -7.482      2.610      4.664
REMARK INTER + INTRA:         -11.282
REMARK INTER:                 -10.002
REMARK INTRA:                  -1.280
REMARK UNBOUND:                -1.175
REMARK  Name = 
REMARK  7 active torsions:
REMARK  status: ('A' for Active; 'I' for Inactive)
REMARK    1  A    between atoms: C_1  and  C_2
REMARK    2  A    between atoms: C_2  and  C_3
REMARK    3  A    between atoms: C_3  and  N_4
REMARK    4  A    between atoms: C_3  and  C_17
REMARK    5  A    between atoms: C_5  and  C_7
REMARK    6  A    between atoms: C_20  and  C_21
REMARK    7  A    between atoms: C_21  and  C_22
REMARK                            x       y       z     vdW  Elec       q    Type
REMARK                         _______ _______ _______ _____ _____    ______ ____
ROOT
ATOM      1  C   UNL     1      46.803   5.569  14.220  0.00  0.00    +0.000 C 
ENDROOT
BRANCH   1   2
ATOM      2  C   UNL     1      46.209   5.183  12.868  0.00  0.00    +0.000 A 
ATOM      3  C   UNL     1      46.353   6.041  11.769  0.00  0.00    +0.000 A 
ATOM      4  C   UNL     1      45.846   5.690  10.511  0.00  0.00    +0.000 A 
ATOM      5  C   UNL     1      45.188   4.468  10.317  0.00  0.00    +0.000 A 
ATOM      6  C   UNL     1      45.047   3.605  11.411  0.00  0.00    +0.000 A 
ATOM      7  C   UNL     1      45.546   3.960  12.670  0.00  0.00    +0.000 A 
BRANCH   5   8
ATOM      8  C   UNL     1      44.650   4.086   8.956  0.00  0.00    +0.000 C 
BRANCH   8   9
ATOM      9  C   UNL     1      45.556   3.181   8.151  0.00  0.00    +0.000 A 
ATOM     10  C   UNL     1      45.749   1.844   8.526  0.00  0.00    +0.000 A 
ATOM     11  C   UNL     1      46.585   1.007   7.781  0.00  0.00    +0.000 A 
ATOM     12  C   UNL     1      47.238   1.497   6.653  0.00  0.00    +0.000 A 
ATOM     13  C   UNL     1      47.052   2.824   6.266  0.00  0.00    +0.000 A 
ATOM     14  C   UNL     1      46.220   3.662   7.012  0.00  0.00    +0.000 A 
ENDBRANCH   8   9
ENDBRANCH   5   8
ENDBRANCH   1   2
BRANCH   1  15
ATOM     15  N   UNL     1      48.087   6.216  14.001  0.00  0.00    +0.000 N 
ATOM     16  C   UNL     1      48.339   7.540  14.238  0.00  0.00    +0.000 C 
ATOM     17  O   UNL     1      47.496   8.304  14.697  0.00  0.00    +0.000 OA
ATOM     18  H   UNL     1      48.790   5.656  13.533  0.00  0.00    +0.000 HD
BRANCH  16  19
ATOM     19  C   UNL     1      49.709   7.990  13.945  0.00  0.00    +0.000 A 
ATOM     20  C   UNL     1      50.754   7.668  14.799  0.00  0.00    +0.000 A 
ATOM     21  S   UNL     1      52.265   8.282  14.291  0.00  0.00    +0.000 S 
ATOM     22  C   UNL     1      51.564   9.042  12.937  0.00  0.00    +0.000 A 
ATOM     23  N   UNL     1      52.311   9.795  12.085  0.00  0.00    +0.000 NA
ATOM     24  C   UNL     1      51.640  10.347  11.130  0.00  0.00    +0.000 A 
ATOM     25  N   UNL     1      50.291  10.201  10.942  0.00  0.00    +0.000 N 
ATOM     26  C   UNL     1      49.519   9.381  11.718  0.00  0.00    +0.000 A 
ATOM     27  O   UNL     1      48.356   9.143  11.420  0.00  0.00    +0.000 OA
ATOM     28  C   UNL     1      50.208   8.792  12.853  0.00  0.00    +0.000 A 
ATOM     29  H   UNL     1      49.825  10.624  10.147  0.00  0.00    +0.000 HD
ENDBRANCH  16  19
ENDBRANCH   1  15
BRANCH   1  31
ATOM     30  C   UNL     1      47.792   4.692  16.419  0.00  0.00    +0.000 C 
ATOM     31  C   UNL     1      46.980   4.370  15.172  0.00  0.00    +0.000 C 
ENDBRANCH   1  31
TORSDOF 6
ENDMDL
MODEL 8
REMARK VINA RESULT:    -7.228      2.275      3.284
REMARK INTER + INTRA:         -10.938
REMARK INTER:                  -9.748
REMARK INTRA:                  -1.191
REMARK UNBOUND:                -1.175
REMARK  Name = 
REMARK  7 active torsions:
REMARK  status: ('A' for Active; 'I' for Inactive)
REMARK    1  A    between atoms: C_1  and  C_2
REMARK    2  A    between atoms: C_2  and  C_3
REMARK    3  A    between atoms: C_3  and  N_4
REMARK    4  A    between atoms: C_3  and  C_17
REMARK    5  A    between atoms: C_5  and  C_7
REMARK    6  A    between atoms: C_20  and  C_21
REMARK    7  A    between atoms: C_21  and  C_22
REMARK                            x       y       z     vdW  Elec       q    Type
REMARK                         _______ _______ _______ _____ _____    ______ ____
ROOT
ATOM      1  C   UNL     1      48.967   7.031  14.229  0.00  0.00    +0.000 C 
ENDROOT
BRANCH   1   2
ATOM      2  C   UNL     1      47.799   6.485  13.413  0.00  0.00    +0.000 A 
ATOM      3  C   UNL     1      47.397   7.140  12.240  0.00  0.00    +0.000 A 
ATOM      4  C   UNL     1      46.350   6.636  11.457  0.00  0.00    +0.000 A 
ATOM      5  C   UNL     1      45.682   5.460  11.822  0.00  0.00    +0.000 A 
ATOM      6  C   UNL     1      46.084   4.799  12.990  0.00  0.00    +0.000 A 
ATOM      7  C   UNL     1      47.124   5.307  13.776  0.00  0.00    +0.000 A 
BRANCH   5   8
ATOM      8  C   UNL     1      44.559   4.911  10.970  0.00  0.00    +0.000 C 
BRANCH   8   9
ATOM      9  C   UNL     1      45.007   4.023   9.830  0.00  0.00    +0.000 A 
ATOM     10  C   UNL     1      44.835   2.633   9.896  0.00  0.00    +0.000 A 
ATOM     11  C   UNL     1      45.248   1.813   8.842  0.00  0.00    +0.000 A 
ATOM     12  C   UNL     1      45.837   2.372   7.710  0.00  0.00    +0.000 A 
ATOM     13  C   UNL     1      46.011   3.754   7.631  0.00  0.00    +0.000 A 
ATOM     14  C   UNL     1      45.602   4.573   8.685  0.00  0.00    +0.000 A 
ENDBRANCH   8   9
ENDBRANCH   5   8
ENDBRANCH   1   2
BRANCH   1  15
ATOM     15  N   UNL     1      48.556   7.145  15.619  0.00  0.00    +0.000 N 
ATOM     16  C   UNL     1      49.308   6.738  16.687  0.00  0.00    +0.000 C 
ATOM     17  O   UNL     1      50.432   6.262  16.563  0.00  0.00    +0.000 OA
ATOM     18  H   UNL     1      47.599   7.442  15.774  0.00  0.00    +0.000 HD
BRANCH  16  19
ATOM     19  C   UNL     1      48.700   6.944  18.010  0.00  0.00    +0.000 A 
ATOM     20  C   UNL     1      48.188   8.183  18.365  0.00  0.00    +0.000 A 
ATOM     21  S   UNL     1      47.527   8.224  19.940  0.00  0.00    +0.000 S 
ATOM     22  C   UNL     1      47.950   6.598  20.220  0.00  0.00    +0.000 A 
ATOM     23  N   UNL     1      47.705   6.001  21.418  0.00  0.00    +0.000 NA
ATOM     24  C   UNL     1      48.119   4.780  21.503  0.00  0.00    +0.000 A 
ATOM     25  N   UNL     1      48.741   4.099  20.490  0.00  0.00    +0.000 N 
ATOM     26  C   UNL     1      48.923   4.628  19.243  0.00  0.00    +0.000 A 
ATOM     27  O   UNL     1      49.328   3.936  18.318  0.00  0.00    +0.000 OA
ATOM     28  C   UNL     1      48.543   6.024  19.112  0.00  0.00    +0.000 A 
ATOM     29  H   UNL     1      49.005   3.125  20.600  0.00  0.00    +0.000 HD
ENDBRANCH  16  19
ENDBRANCH   1  15
BRANCH   1  31
ATOM     30  C   UNL     1      48.852   9.586  14.434  0.00  0.00    +0.000 C 
ATOM     31  C   UNL     1      49.479   8.394  13.723  0.00  0.00    +0.000 C 
ENDBRANCH   1  31
TORSDOF 6
ENDMDL
MODEL 9
REMARK VINA RESULT:    -6.936      2.813      4.024
REMARK INTER + INTRA:         -10.544
REMARK INTER:                  -9.090
REMARK INTRA:                  -1.454
REMARK UNBOUND:                -1.175
REMARK  Name = 
REMARK  7 active torsions:
REMARK  status: ('A' for Active; 'I' for Inactive)
REMARK    1  A    between atoms: C_1  and  C_2
REMARK    2  A    between atoms: C_2  and  C_3
REMARK    3  A    between atoms: C_3  and  N_4
REMARK    4  A    between atoms: C_3  and  C_17
REMARK    5  A    between atoms: C_5  and  C_7
REMARK    6  A    between atoms: C_20  and  C_21
REMARK    7  A    between atoms: C_21  and  C_22
REMARK                            x       y       z     vdW  Elec       q    Type
REMARK                         _______ _______ _______ _____ _____    ______ ____
ROOT
ATOM      1  C   UNL     1      48.944   6.958  14.398  0.00  0.00    +0.000 C 
ENDROOT
BRANCH   1   2
ATOM      2  C   UNL     1      47.762   6.487  13.556  0.00  0.00    +0.000 A 
ATOM      3  C   UNL     1      47.415   7.177  12.386  0.00  0.00    +0.000 A 
ATOM      4  C   UNL     1      46.356   6.740  11.580  0.00  0.00    +0.000 A 
ATOM      5  C   UNL     1      45.621   5.597  11.917  0.00  0.00    +0.000 A 
ATOM      6  C   UNL     1      45.968   4.900  13.082  0.00  0.00    +0.000 A 
ATOM      7  C   UNL     1      47.021   5.342  13.892  0.00  0.00    +0.000 A 
BRANCH   5   8
ATOM      8  C   UNL     1      44.484   5.120  11.041  0.00  0.00    +0.000 C 
BRANCH   8   9
ATOM      9  C   UNL     1      44.890   4.153   9.950  0.00  0.00    +0.000 A 
ATOM     10  C   UNL     1      44.631   2.781  10.077  0.00  0.00    +0.000 A 
ATOM     11  C   UNL     1      45.005   1.888   9.069  0.00  0.00    +0.000 A 
ATOM     12  C   UNL     1      45.644   2.356   7.923  0.00  0.00    +0.000 A 
ATOM     13  C   UNL     1      45.905   3.718   7.782  0.00  0.00    +0.000 A 
ATOM     14  C   UNL     1      45.534   4.611   8.791  0.00  0.00    +0.000 A 
ENDBRANCH   8   9
ENDBRANCH   5   8
ENDBRANCH   1   2
BRANCH   1  15
ATOM     15  N   UNL     1      48.531   7.026  15.791  0.00  0.00    +0.000 N 
ATOM     16  C   UNL     1      49.080   6.282  16.799  0.00  0.00    +0.000 C 
ATOM     17  O   UNL     1      50.009   5.502  16.618  0.00  0.00    +0.000 OA
ATOM     18  H   UNL     1      47.705   7.581  15.980  0.00  0.00    +0.000 HD
BRANCH  16  19
ATOM     19  C   UNL     1      48.510   6.504  18.137  0.00  0.00    +0.000 A 
ATOM     20  C   UNL     1      47.840   5.485  18.796  0.00  0.00    +0.000 A 
ATOM     21  S   UNL     1      47.251   5.937  20.335  0.00  0.00    +0.000 S 
ATOM     22  C   UNL     1      47.828   7.529  20.150  0.00  0.00    +0.000 A 
ATOM     23  N   UNL     1      47.615   8.473  21.106  0.00  0.00    +0.000 NA
ATOM     24  C   UNL     1      48.068   9.646  20.812  0.00  0.00    +0.000 A 
ATOM     25  N   UNL     1      48.731   9.954  19.654  0.00  0.00    +0.000 N 
ATOM     26  C   UNL     1      49.049   9.018  18.709  0.00  0.00    +0.000 A 
ATOM     27  O   UNL     1      49.785   9.293  17.772  0.00  0.00    +0.000 OA
ATOM     28  C   UNL     1      48.499   7.696  18.954  0.00  0.00    +0.000 A 
ATOM     29  H   UNL     1      49.105  10.884  19.497  0.00  0.00    +0.000 HD
ENDBRANCH  16  19
ENDBRANCH   1  15
BRANCH   1  31
ATOM     30  C   UNL     1      48.779   9.513  14.572  0.00  0.00    +0.000 C 
ATOM     31  C   UNL     1      49.502   8.325  13.953  0.00  0.00    +0.000 C 
ENDBRANCH   1  31
TORSDOF 6
ENDMDL
