MODEL 1
REMARK VINA RESULT:    -7.176      0.000      0.000
REMARK INTER + INTRA:         -11.356
REMARK INTER:                 -10.112
REMARK INTRA:                  -1.243
REMARK UNBOUND:                -1.243
REMARK  Name = 
REMARK  8 active torsions:
REMARK  status: ('A' for Active; 'I' for Inactive)
REMARK    1  A    between atoms: C_1  and  N_2
REMARK    2  A    between atoms: N_2  and  C_3
REMARK    3  A    between atoms: C_3  and  C_4
REMARK    4  A    between atoms: C_7  and  C_8
REMARK    5  A    between atoms: C_8  and  C_9
REMARK    6  A    between atoms: C_9  and  C_10
REMARK    7  A    between atoms: C_10  and  N_11
REMARK    8  A    between atoms: C_19  and  C_21
REMARK                            x       y       z     vdW  Elec       q    Type
REMARK                         _______ _______ _______ _____ _____    ______ ____
ROOT
ATOM      1  C   UNL     1      47.247   6.216  12.373  0.00  0.00    +0.000 C 
ENDROOT
BRANCH   1   2
ATOM      2  C   UNL     1      47.543   5.865  13.806  0.00  0.00    +0.000 A 
ATOM      3  C   UNL     1      46.968   4.720  14.379  0.00  0.00    +0.000 A 
ATOM      4  C   UNL     1      47.280   4.360  15.684  0.00  0.00    +0.000 A 
ATOM      5  C   UNL     1      48.194   5.118  16.430  0.00  0.00    +0.000 A 
ATOM      6  C   UNL     1      48.728   6.286  15.879  0.00  0.00    +0.000 A 
ATOM      7  C   UNL     1      48.401   6.658  14.576  0.00  0.00    +0.000 A 
BRANCH   5   8
ATOM      8  C   UNL     1      48.608   4.649  17.799  0.00  0.00    +0.000 C 
BRANCH   8   9
ATOM      9  C   UNL     1      49.656   3.523  17.693  0.00  0.00    +0.000 C 
BRANCH   9  10
ATOM     10  C   UNL     1      51.098   4.031  17.587  0.00  0.00    +0.000 C 
BRANCH  10  11
ATOM     11  N   UNL     1      51.982   2.961  17.964  0.00  0.00    +0.000 NA
ATOM     12  C   UNL     1      52.943   3.144  19.040  0.00  0.00    +0.000 C 
ATOM     13  C   UNL     1      54.160   2.245  18.765  0.00  0.00    +0.000 C 
ATOM     14  O   UNL     1      53.775   0.873  18.584  0.00  0.00    +0.000 OA
ATOM     15  C   UNL     1      52.846   0.752  17.495  0.00  0.00    +0.000 C 
ATOM     16  C   UNL     1      51.578   1.586  17.740  0.00  0.00    +0.000 C 
ENDBRANCH  10  11
ENDBRANCH   9  10
ENDBRANCH   8   9
ENDBRANCH   5   8
ENDBRANCH   1   2
BRANCH   1  18
ATOM     17  C   UNL     1      46.348   8.583  12.194  0.00  0.00    +0.000 C 
ATOM     18  N   UNL     1      46.142   7.144  12.109  0.00  0.00    +0.000 N 
ATOM     19  C   UNL     1      44.878   6.732  11.651  0.00  0.00    +0.000 C 
ATOM     20  O   UNL     1      44.017   7.561  11.356  0.00  0.00    +0.000 OA
BRANCH  19  21
ATOM     21  C   UNL     1      44.562   5.301  11.562  0.00  0.00    +0.000 A 
ATOM     22  C   UNL     1      43.814   4.598  12.493  0.00  0.00    +0.000 A 
ATOM     23  S   UNL     1      43.537   2.968  12.062  0.00  0.00    +0.000 S 
ATOM     24  C   UNL     1      44.287   3.190  10.550  0.00  0.00    +0.000 A 
ATOM     25  N   UNL     1      44.292   2.196   9.619  0.00  0.00    +0.000 NA
ATOM     26  C   UNL     1      44.825   2.538   8.490  0.00  0.00    +0.000 A 
ATOM     27  N   UNL     1      45.387   3.759   8.223  0.00  0.00    +0.000 N 
ATOM     28  C   UNL     1      45.529   4.741   9.183  0.00  0.00    +0.000 A 
ATOM     29  O   UNL     1      46.251   5.712   8.986  0.00  0.00    +0.000 OA
ATOM     30  C   UNL     1      44.826   4.454  10.422  0.00  0.00    +0.000 A 
ATOM     31  H   UNL     1      45.847   3.936   7.345  0.00  0.00    +0.000 HD
ENDBRANCH  19  21
ENDBRANCH   1  18
TORSDOF 7
ENDMDL
MODEL 2
REMARK VINA RESULT:    -6.868      2.467      3.353
REMARK INTER + INTRA:         -10.922
REMARK INTER:                  -9.497
REMARK INTRA:                  -1.425
REMARK UNBOUND:                -1.243
REMARK  Name = 
REMARK  8 active torsions:
REMARK  status: ('A' for Active; 'I' for Inactive)
REMARK    1  A    between atoms: C_1  and  N_2
REMARK    2  A    between atoms: N_2  and  C_3
REMARK    3  A    between atoms: C_3  and  C_4
REMARK    4  A    between atoms: C_7  and  C_8
REMARK    5  A    between atoms: C_8  and  C_9
REMARK    6  A    between atoms: C_9  and  C_10
REMARK    7  A    between atoms: C_10  and  N_11
REMARK    8  A    between atoms: C_19  and  C_21
REMARK                            x       y       z     vdW  Elec       q    Type
REMARK                         _______ _______ _______ _____ _____    ______ ____
ROOT
ATOM      1  C   UNL     1      47.381   6.158  12.516  0.00  0.00    +0.000 C 
ENDROOT
BRANCH   1   2
ATOM      2  C   UNL     1      47.597   5.765  13.952  0.00  0.00    +0.000 A 
ATOM      3  C   UNL     1      46.990   4.608  14.460  0.00  0.00    +0.000 A 
ATOM      4  C   UNL     1      47.228   4.210  15.771  0.00  0.00    +0.000 A 
ATOM      5  C   UNL     1      48.102   4.944  16.586  0.00  0.00    +0.000 A 
ATOM      6  C   UNL     1      48.667   6.125  16.098  0.00  0.00    +0.000 A 
ATOM      7  C   UNL     1      48.414   6.534  14.790  0.00  0.00    +0.000 A 
BRANCH   5   8
ATOM      8  C   UNL     1      48.439   4.435  17.962  0.00  0.00    +0.000 C 
BRANCH   8   9
ATOM      9  C   UNL     1      49.963   4.469  18.195  0.00  0.00    +0.000 C 
BRANCH   9  10
ATOM     10  C   UNL     1      50.361   4.915  19.606  0.00  0.00    +0.000 C 
BRANCH  10  11
ATOM     11  N   UNL     1      49.435   5.929  20.036  0.00  0.00    +0.000 NA
ATOM     12  C   UNL     1      48.713   5.782  21.290  0.00  0.00    +0.000 C 
ATOM     13  C   UNL     1      47.366   6.514  21.166  0.00  0.00    +0.000 C 
ATOM     14  O   UNL     1      47.544   7.887  20.778  0.00  0.00    +0.000 OA
ATOM     15  C   UNL     1      48.241   7.967  19.524  0.00  0.00    +0.000 C 
ATOM     16  C   UNL     1      49.624   7.301  19.603  0.00  0.00    +0.000 C 
ENDBRANCH  10  11
ENDBRANCH   9  10
ENDBRANCH   8   9
ENDBRANCH   5   8
ENDBRANCH   1   2
BRANCH   1  18
ATOM     17  C   UNL     1      46.608   8.566  12.306  0.00  0.00    +0.000 C 
ATOM     18  N   UNL     1      46.331   7.139  12.224  0.00  0.00    +0.000 N 
ATOM     19  C   UNL     1      45.057   6.788  11.741  0.00  0.00    +0.000 C 
ATOM     20  O   UNL     1      44.245   7.658  11.424  0.00  0.00    +0.000 OA
BRANCH  19  21
ATOM     21  C   UNL     1      44.670   5.375  11.653  0.00  0.00    +0.000 A 
ATOM     22  C   UNL     1      43.935   4.695  12.611  0.00  0.00    +0.000 A 
ATOM     23  S   UNL     1      43.562   3.086  12.178  0.00  0.00    +0.000 S 
ATOM     24  C   UNL     1      44.249   3.291  10.634  0.00  0.00    +0.000 A 
ATOM     25  N   UNL     1      44.163   2.310   9.694  0.00  0.00    +0.000 NA
ATOM     26  C   UNL     1      44.657   2.641   8.545  0.00  0.00    +0.000 A 
ATOM     27  N   UNL     1      45.263   3.837   8.264  0.00  0.00    +0.000 N 
ATOM     28  C   UNL     1      45.496   4.800   9.225  0.00  0.00    +0.000 A 
ATOM     29  O   UNL     1      46.252   5.738   9.003  0.00  0.00    +0.000 OA
ATOM     30  C   UNL     1      44.840   4.531  10.493  0.00  0.00    +0.000 A 
ATOM     31  H   UNL     1      45.689   4.003   7.366  0.00  0.00    +0.000 HD
ENDBRANCH  19  21
ENDBRANCH   1  18
TORSDOF 7
ENDMDL
MODEL 3
REMARK VINA RESULT:    -6.802      1.621      2.202
REMARK INTER + INTRA:         -10.829
REMARK INTER:                  -9.359
REMARK INTRA:                  -1.470
REMARK UNBOUND:                -1.243
REMARK  Name = 
REMARK  8 active torsions:
REMARK  status: ('A' for Active; 'I' for Inactive)
REMARK    1  A    between atoms: C_1  and  N_2
REMARK    2  A    between atoms: N_2  and  C_3
REMARK    3  A    between atoms: C_3  and  C_4
REMARK    4  A    between atoms: C_7  and  C_8
REMARK    5  A    between atoms: C_8  and  C_9
REMARK    6  A    between atoms: C_9  and  C_10
REMARK    7  A    between atoms: C_10  and  N_11
REMARK    8  A    between atoms: C_19  and  C_21
REMARK                            x       y       z     vdW  Elec       q    Type
REMARK                         _______ _______ _______ _____ _____    ______ ____
ROOT
ATOM      1  C   UNL     1      47.198   6.164  12.334  0.00  0.00    +0.000 C 
ENDROOT
BRANCH   1   2
ATOM      2  C   UNL     1      47.530   5.801  13.756  0.00  0.00    +0.000 A 
ATOM      3  C   UNL     1      48.372   6.630  14.511  0.00  0.00    +0.000 A 
ATOM      4  C   UNL     1      48.640   6.329  15.841  0.00  0.00    +0.000 A 
ATOM      5  C   UNL     1      48.047   5.213  16.449  0.00  0.00    +0.000 A 
ATOM      6  C   UNL     1      47.249   4.358  15.684  0.00  0.00    +0.000 A 
ATOM      7  C   UNL     1      46.995   4.650  14.345  0.00  0.00    +0.000 A 
BRANCH   5   8
ATOM      8  C   UNL     1      48.255   4.969  17.920  0.00  0.00    +0.000 C 
BRANCH   8   9
ATOM      9  C   UNL     1      48.860   3.571  18.158  0.00  0.00    +0.000 C 
BRANCH   9  10
ATOM     10  C   UNL     1      50.305   3.433  17.668  0.00  0.00    +0.000 C 
BRANCH  10  11
ATOM     11  N   UNL     1      51.057   4.557  18.157  0.00  0.00    +0.000 NA
ATOM     12  C   UNL     1      51.537   4.581  19.530  0.00  0.00    +0.000 C 
ATOM     13  C   UNL     1      51.619   6.045  19.992  0.00  0.00    +0.000 C 
ATOM     14  O   UNL     1      52.424   6.837  19.103  0.00  0.00    +0.000 OA
ATOM     15  C   UNL     1      51.888   6.794  17.770  0.00  0.00    +0.000 C 
ATOM     16  C   UNL     1      51.836   5.356  17.229  0.00  0.00    +0.000 C 
ENDBRANCH  10  11
ENDBRANCH   9  10
ENDBRANCH   8   9
ENDBRANCH   5   8
ENDBRANCH   1   2
BRANCH   1  18
ATOM     17  C   UNL     1      46.261   8.520  12.217  0.00  0.00    +0.000 C 
ATOM     18  N   UNL     1      46.077   7.080  12.104  0.00  0.00    +0.000 N 
ATOM     19  C   UNL     1      44.812   6.658  11.653  0.00  0.00    +0.000 C 
ATOM     20  O   UNL     1      43.935   7.479  11.387  0.00  0.00    +0.000 OA
BRANCH  19  21
ATOM     21  C   UNL     1      44.518   5.224  11.539  0.00  0.00    +0.000 A 
ATOM     22  C   UNL     1      43.784   4.493  12.459  0.00  0.00    +0.000 A 
ATOM     23  S   UNL     1      43.529   2.868  11.998  0.00  0.00    +0.000 S 
ATOM     24  C   UNL     1      44.269   3.128  10.488  0.00  0.00    +0.000 A 
ATOM     25  N   UNL     1      44.285   2.153   9.538  0.00  0.00    +0.000 NA
ATOM     26  C   UNL     1      44.808   2.524   8.414  0.00  0.00    +0.000 A 
ATOM     27  N   UNL     1      45.352   3.758   8.168  0.00  0.00    +0.000 N 
ATOM     28  C   UNL     1      45.483   4.724   9.146  0.00  0.00    +0.000 A 
ATOM     29  O   UNL     1      46.190   5.709   8.965  0.00  0.00    +0.000 OA
ATOM     30  C   UNL     1      44.790   4.403  10.381  0.00  0.00    +0.000 A 
ATOM     31  H   UNL     1      45.805   3.958   7.292  0.00  0.00    +0.000 HD
ENDBRANCH  19  21
ENDBRANCH   1  18
TORSDOF 7
ENDMDL
MODEL 4
REMARK VINA RESULT:    -6.783      3.906      8.771
REMARK INTER + INTRA:         -10.802
REMARK INTER:                  -9.607
REMARK INTRA:                  -1.195
REMARK UNBOUND:                -1.243
REMARK  Name = 
REMARK  8 active torsions:
REMARK  status: ('A' for Active; 'I' for Inactive)
REMARK    1  A    between atoms: C_1  and  N_2
REMARK    2  A    between atoms: N_2  and  C_3
REMARK    3  A    between atoms: C_3  and  C_4
REMARK    4  A    between atoms: C_7  and  C_8
REMARK    5  A    between atoms: C_8  and  C_9
REMARK    6  A    between atoms: C_9  and  C_10
REMARK    7  A    between atoms: C_10  and  N_11
REMARK    8  A    between atoms: C_19  and  C_21
REMARK                            x       y       z     vdW  Elec       q    Type
REMARK                         _______ _______ _______ _____ _____    ______ ____
ROOT
ATOM      1  C   UNL     1      47.543   7.936  13.820  0.00  0.00    +0.000 C 
ENDROOT
BRANCH   1   2
ATOM      2  C   UNL     1      46.622   6.980  13.111  0.00  0.00    +0.000 A 
ATOM      3  C   UNL     1      46.721   5.603  13.356  0.00  0.00    +0.000 A 
ATOM      4  C   UNL     1      45.839   4.719  12.745  0.00  0.00    +0.000 A 
ATOM      5  C   UNL     1      44.824   5.198  11.905  0.00  0.00    +0.000 A 
ATOM      6  C   UNL     1      44.755   6.564  11.620  0.00  0.00    +0.000 A 
ATOM      7  C   UNL     1      45.652   7.449  12.218  0.00  0.00    +0.000 A 
BRANCH   5   8
ATOM      8  C   UNL     1      43.806   4.240  11.346  0.00  0.00    +0.000 C 
BRANCH   8   9
ATOM      9  C   UNL     1      44.149   3.871   9.889  0.00  0.00    +0.000 C 
BRANCH   9  10
ATOM     10  C   UNL     1      44.700   2.451   9.726  0.00  0.00    +0.000 C 
BRANCH  10  11
ATOM     11  N   UNL     1      45.552   2.428   8.567  0.00  0.00    +0.000 NA
ATOM     12  C   UNL     1      46.093   1.170   8.076  0.00  0.00    +0.000 C 
ATOM     13  C   UNL     1      47.441   1.454   7.391  0.00  0.00    +0.000 C 
ATOM     14  O   UNL     1      47.312   2.449   6.362  0.00  0.00    +0.000 OA
ATOM     15  C   UNL     1      46.797   3.673   6.911  0.00  0.00    +0.000 C 
ATOM     16  C   UNL     1      45.419   3.464   7.560  0.00  0.00    +0.000 C 
ENDBRANCH  10  11
ENDBRANCH   9  10
ENDBRANCH   8   9
ENDBRANCH   5   8
ENDBRANCH   1   2
BRANCH   1  18
ATOM     17  C   UNL     1      49.624   7.364  12.484  0.00  0.00    +0.000 C 
ATOM     18  N   UNL     1      48.984   7.675  13.755  0.00  0.00    +0.000 N 
ATOM     19  C   UNL     1      49.848   7.821  14.856  0.00  0.00    +0.000 C 
ATOM     20  O   UNL     1      51.063   7.680  14.723  0.00  0.00    +0.000 OA
BRANCH  19  21
ATOM     21  C   UNL     1      49.295   8.102  16.187  0.00  0.00    +0.000 A 
ATOM     22  C   UNL     1      49.186   9.365  16.746  0.00  0.00    +0.000 A 
ATOM     23  S   UNL     1      48.412   9.377  18.269  0.00  0.00    +0.000 S 
ATOM     24  C   UNL     1      48.071   7.713  18.164  0.00  0.00    +0.000 A 
ATOM     25  N   UNL     1      47.312   7.093  19.109  0.00  0.00    +0.000 NA
ATOM     26  C   UNL     1      47.069   5.848  18.852  0.00  0.00    +0.000 A 
ATOM     27  N   UNL     1      47.547   5.160  17.767  0.00  0.00    +0.000 N 
ATOM     28  C   UNL     1      48.434   5.713  16.865  0.00  0.00    +0.000 A 
ATOM     29  O   UNL     1      49.032   5.008  16.060  0.00  0.00    +0.000 OA
ATOM     30  C   UNL     1      48.627   7.142  17.036  0.00  0.00    +0.000 A 
ATOM     31  H   UNL     1      47.377   4.173  17.664  0.00  0.00    +0.000 HD
ENDBRANCH  19  21
ENDBRANCH   1  18
TORSDOF 7
ENDMDL
MODEL 5
REMARK VINA RESULT:    -6.557      3.573      8.459
REMARK INTER + INTRA:         -10.483
REMARK INTER:                  -8.956
REMARK INTRA:                  -1.527
REMARK UNBOUND:                -1.243
REMARK  Name = 
REMARK  8 active torsions:
REMARK  status: ('A' for Active; 'I' for Inactive)
REMARK    1  A    between atoms: C_1  and  N_2
REMARK    2  A    between atoms: N_2  and  C_3
REMARK    3  A    between atoms: C_3  and  C_4
REMARK    4  A    between atoms: C_7  and  C_8
REMARK    5  A    between atoms: C_8  and  C_9
REMARK    6  A    between atoms: C_9  and  C_10
REMARK    7  A    between atoms: C_10  and  N_11
REMARK    8  A    between atoms: C_19  and  C_21
REMARK                            x       y       z     vdW  Elec       q    Type
REMARK                         _______ _______ _______ _____ _____    ______ ____
ROOT
ATOM      1  C   UNL     1      49.325   8.237  17.467  0.00  0.00    +0.000 C 
ENDROOT
BRANCH   1   2
ATOM      2  C   UNL     1      48.848   8.128  16.044  0.00  0.00    +0.000 A 
ATOM      3  C   UNL     1      49.098   6.959  15.310  0.00  0.00    +0.000 A 
ATOM      4  C   UNL     1      48.615   6.832  14.013  0.00  0.00    +0.000 A 
ATOM      5  C   UNL     1      47.847   7.855  13.439  0.00  0.00    +0.000 A 
ATOM      6  C   UNL     1      47.641   9.040  14.149  0.00  0.00    +0.000 A 
ATOM      7  C   UNL     1      48.141   9.176  15.443  0.00  0.00    +0.000 A 
BRANCH   5   8
ATOM      8  C   UNL     1      47.234   7.651  12.079  0.00  0.00    +0.000 C 
BRANCH   8   9
ATOM      9  C   UNL     1      46.560   6.268  11.989  0.00  0.00    +0.000 C 
BRANCH   9  10
ATOM     10  C   UNL     1      45.169   6.217  12.629  0.00  0.00    +0.000 C 
BRANCH  10  11
ATOM     11  N   UNL     1      44.468   5.079  12.097  0.00  0.00    +0.000 NA
ATOM     12  C   UNL     1      43.599   4.285  12.950  0.00  0.00    +0.000 C 
ATOM     13  C   UNL     1      43.584   2.840  12.422  0.00  0.00    +0.000 C 
ATOM     14  O   UNL     1      43.211   2.787  11.035  0.00  0.00    +0.000 OA
ATOM     15  C   UNL     1      44.118   3.570  10.241  0.00  0.00    +0.000 C 
ATOM     16  C   UNL     1      44.132   5.041  10.686  0.00  0.00    +0.000 C 
ENDBRANCH  10  11
ENDBRANCH   9  10
ENDBRANCH   8   9
ENDBRANCH   5   8
ENDBRANCH   1   2
BRANCH   1  18
ATOM     17  C   UNL     1      47.360   8.649  19.021  0.00  0.00    +0.000 C 
ATOM     18  N   UNL     1      48.422   7.782  18.529  0.00  0.00    +0.000 N 
ATOM     19  C   UNL     1      48.436   6.475  19.050  0.00  0.00    +0.000 C 
ATOM     20  O   UNL     1      47.594   6.120  19.875  0.00  0.00    +0.000 OA
BRANCH  19  21
ATOM     21  C   UNL     1      49.487   5.536  18.642  0.00  0.00    +0.000 A 
ATOM     22  C   UNL     1      50.781   5.533  19.137  0.00  0.00    +0.000 A 
ATOM     23  S   UNL     1      51.744   4.256  18.539  0.00  0.00    +0.000 S 
ATOM     24  C   UNL     1      50.421   3.582  17.708  0.00  0.00    +0.000 A 
ATOM     25  N   UNL     1      50.532   2.386  17.067  0.00  0.00    +0.000 NA
ATOM     26  C   UNL     1      49.422   1.962  16.552  0.00  0.00    +0.000 A 
ATOM     27  N   UNL     1      48.232   2.639  16.583  0.00  0.00    +0.000 N 
ATOM     28  C   UNL     1      48.111   3.914  17.097  0.00  0.00    +0.000 A 
ATOM     29  O   UNL     1      47.106   4.584  16.886  0.00  0.00    +0.000 OA
ATOM     30  C   UNL     1      49.293   4.374  17.805  0.00  0.00    +0.000 A 
ATOM     31  H   UNL     1      47.422   2.283  16.101  0.00  0.00    +0.000 HD
ENDBRANCH  19  21
ENDBRANCH   1  18
TORSDOF 7
ENDMDL
MODEL 6
REMARK VINA RESULT:    -6.344      4.583      6.363
REMARK INTER + INTRA:         -10.184
REMARK INTER:                  -8.980
REMARK INTRA:                  -1.204
REMARK UNBOUND:                -1.243
REMARK  Name = 
REMARK  8 active torsions:
REMARK  status: ('A' for Active; 'I' for Inactive)
REMARK    1  A    between atoms: C_1  and  N_2
REMARK    2  A    between atoms: N_2  and  C_3
REMARK    3  A    between atoms: C_3  and  C_4
REMARK    4  A    between atoms: C_7  and  C_8
REMARK    5  A    between atoms: C_8  and  C_9
REMARK    6  A    between atoms: C_9  and  C_10
REMARK    7  A    between atoms: C_10  and  N_11
REMARK    8  A    between atoms: C_19  and  C_21
REMARK                            x       y       z     vdW  Elec       q    Type
REMARK                         _______ _______ _______ _____ _____    ______ ____
ROOT
ATOM      1  C   UNL     1      46.741   6.406  12.868  0.00  0.00    +0.000 C 
ENDROOT
BRANCH   1   2
ATOM      2  C   UNL     1      48.131   6.974  12.766  0.00  0.00    +0.000 A 
ATOM      3  C   UNL     1      48.666   7.291  11.509  0.00  0.00    +0.000 A 
ATOM      4  C   UNL     1      49.928   7.865  11.411  0.00  0.00    +0.000 A 
ATOM      5  C   UNL     1      50.664   8.161  12.567  0.00  0.00    +0.000 A 
ATOM      6  C   UNL     1      50.154   7.799  13.817  0.00  0.00    +0.000 A 
ATOM      7  C   UNL     1      48.896   7.206  13.915  0.00  0.00    +0.000 A 
BRANCH   5   8
ATOM      8  C   UNL     1      51.976   8.889  12.448  0.00  0.00    +0.000 C 
BRANCH   8   9
ATOM      9  C   UNL     1      52.232   9.312  10.988  0.00  0.00    +0.000 C 
BRANCH   9  10
ATOM     10  C   UNL     1      53.481   8.673  10.371  0.00  0.00    +0.000 C 
BRANCH  10  11
ATOM     11  N   UNL     1      53.143   8.203   9.055  0.00  0.00    +0.000 NA
ATOM     12  C   UNL     1      52.466   6.928   8.880  0.00  0.00    +0.000 C 
ATOM     13  C   UNL     1      52.869   6.344   7.516  0.00  0.00    +0.000 C 
ATOM     14  O   UNL     1      52.609   7.269   6.446  0.00  0.00    +0.000 OA
ATOM     15  C   UNL     1      53.323   8.497   6.662  0.00  0.00    +0.000 C 
ATOM     16  C   UNL     1      52.917   9.160   7.988  0.00  0.00    +0.000 C 
ENDBRANCH  10  11
ENDBRANCH   9  10
ENDBRANCH   8   9
ENDBRANCH   5   8
ENDBRANCH   1   2
BRANCH   1  18
ATOM     17  C   UNL     1      45.681   8.688  12.535  0.00  0.00    +0.000 C 
ATOM     18  N   UNL     1      45.625   7.238  12.410  0.00  0.00    +0.000 N 
ATOM     19  C   UNL     1      44.506   6.726  11.727  0.00  0.00    +0.000 C 
ATOM     20  O   UNL     1      43.643   7.481  11.282  0.00  0.00    +0.000 OA
BRANCH  19  21
ATOM     21  C   UNL     1      44.342   5.274  11.578  0.00  0.00    +0.000 A 
ATOM     22  C   UNL     1      43.593   4.473  12.425  0.00  0.00    +0.000 A 
ATOM     23  S   UNL     1      43.515   2.839  11.933  0.00  0.00    +0.000 S 
ATOM     24  C   UNL     1      44.360   3.179  10.496  0.00  0.00    +0.000 A 
ATOM     25  N   UNL     1      44.540   2.222   9.546  0.00  0.00    +0.000 NA
ATOM     26  C   UNL     1      45.127   2.649   8.475  0.00  0.00    +0.000 A 
ATOM     27  N   UNL     1      45.586   3.926   8.286  0.00  0.00    +0.000 N 
ATOM     28  C   UNL     1      45.552   4.886   9.277  0.00  0.00    +0.000 A 
ATOM     29  O   UNL     1      46.188   5.928   9.165  0.00  0.00    +0.000 OA
ATOM     30  C   UNL     1      44.781   4.494  10.444  0.00  0.00    +0.000 A 
ATOM     31  H   UNL     1      46.097   4.174   7.454  0.00  0.00    +0.000 HD
ENDBRANCH  19  21
ENDBRANCH   1  18
TORSDOF 7
ENDMDL
MODEL 7
REMARK VINA RESULT:    -6.300      3.383      8.750
REMARK INTER + INTRA:         -10.121
REMARK INTER:                  -9.178
REMARK INTRA:                  -0.942
REMARK UNBOUND:                -1.243
REMARK  Name = 
REMARK  8 active torsions:
REMARK  status: ('A' for Active; 'I' for Inactive)
REMARK    1  A    between atoms: C_1  and  N_2
REMARK    2  A    between atoms: N_2  and  C_3
REMARK    3  A    between atoms: C_3  and  C_4
REMARK    4  A    between atoms: C_7  and  C_8
REMARK    5  A    between atoms: C_8  and  C_9
REMARK    6  A    between atoms: C_9  and  C_10
REMARK    7  A    between atoms: C_10  and  N_11
REMARK    8  A    between atoms: C_19  and  C_21
REMARK                            x       y       z     vdW  Elec       q    Type
REMARK                         _______ _______ _______ _____ _____    ______ ____
ROOT
ATOM      1  C   UNL     1      49.312   7.891  15.164  0.00  0.00    +0.000 C 
ENDROOT
BRANCH   1   2
ATOM      2  C   UNL     1      48.168   7.699  14.205  0.00  0.00    +0.000 A 
ATOM      3  C   UNL     1      47.835   6.410  13.764  0.00  0.00    +0.000 A 
ATOM      4  C   UNL     1      46.747   6.219  12.920  0.00  0.00    +0.000 A 
ATOM      5  C   UNL     1      45.955   7.308  12.528  0.00  0.00    +0.000 A 
ATOM      6  C   UNL     1      46.316   8.598  12.925  0.00  0.00    +0.000 A 
ATOM      7  C   UNL     1      47.418   8.792  13.756  0.00  0.00    +0.000 A 
BRANCH   5   8
ATOM      8  C   UNL     1      44.714   7.069  11.710  0.00  0.00    +0.000 C 
BRANCH   8   9
ATOM      9  C   UNL     1      44.244   5.607  11.850  0.00  0.00    +0.000 C 
BRANCH   9  10
ATOM     10  C   UNL     1      43.447   5.098  10.645  0.00  0.00    +0.000 C 
BRANCH  10  11
ATOM     11  N   UNL     1      44.289   4.209   9.890  0.00  0.00    +0.000 NA
ATOM     12  C   UNL     1      45.408   4.730   9.122  0.00  0.00    +0.000 C 
ATOM     13  C   UNL     1      45.648   3.801   7.919  0.00  0.00    +0.000 C 
ATOM     14  O   UNL     1      45.837   2.438   8.332  0.00  0.00    +0.000 OA
ATOM     15  C   UNL     1      44.690   1.973   9.064  0.00  0.00    +0.000 C 
ATOM     16  C   UNL     1      44.434   2.829  10.314  0.00  0.00    +0.000 C 
ENDBRANCH  10  11
ENDBRANCH   9  10
ENDBRANCH   8   9
ENDBRANCH   5   8
ENDBRANCH   1   2
BRANCH   1  18
ATOM     17  C   UNL     1      48.083   9.370  16.822  0.00  0.00    +0.000 C 
ATOM     18  N   UNL     1      48.993   8.267  16.545  0.00  0.00    +0.000 N 
ATOM     19  C   UNL     1      49.430   7.538  17.666  0.00  0.00    +0.000 C 
ATOM     20  O   UNL     1      49.056   7.844  18.798  0.00  0.00    +0.000 OA
BRANCH  19  21
ATOM     21  C   UNL     1      50.375   6.428  17.494  0.00  0.00    +0.000 A 
ATOM     22  C   UNL     1      51.751   6.534  17.623  0.00  0.00    +0.000 A 
ATOM     23  S   UNL     1      52.573   5.046  17.460  0.00  0.00    +0.000 S 
ATOM     24  C   UNL     1      51.106   4.190  17.354  0.00  0.00    +0.000 A 
ATOM     25  N   UNL     1      51.090   2.830  17.314  0.00  0.00    +0.000 NA
ATOM     26  C   UNL     1      49.901   2.318  17.318  0.00  0.00    +0.000 A 
ATOM     27  N   UNL     1      48.735   3.039  17.315  0.00  0.00    +0.000 N 
ATOM     28  C   UNL     1      48.708   4.415  17.211  0.00  0.00    +0.000 A 
ATOM     29  O   UNL     1      47.664   5.006  16.961  0.00  0.00    +0.000 OA
ATOM     30  C   UNL     1      50.015   5.037  17.341  0.00  0.00    +0.000 A 
ATOM     31  H   UNL     1      47.843   2.578  17.248  0.00  0.00    +0.000 HD
ENDBRANCH  19  21
ENDBRANCH   1  18
TORSDOF 7
ENDMDL
MODEL 8
REMARK VINA RESULT:    -6.129      2.220      2.981
REMARK INTER + INTRA:          -9.880
REMARK INTER:                  -8.589
REMARK INTRA:                  -1.291
REMARK UNBOUND:                -1.243
REMARK  Name = 
REMARK  8 active torsions:
REMARK  status: ('A' for Active; 'I' for Inactive)
REMARK    1  A    between atoms: C_1  and  N_2
REMARK    2  A    between atoms: N_2  and  C_3
REMARK    3  A    between atoms: C_3  and  C_4
REMARK    4  A    between atoms: C_7  and  C_8
REMARK    5  A    between atoms: C_8  and  C_9
REMARK    6  A    between atoms: C_9  and  C_10
REMARK    7  A    between atoms: C_10  and  N_11
REMARK    8  A    between atoms: C_19  and  C_21
REMARK                            x       y       z     vdW  Elec       q    Type
REMARK                         _______ _______ _______ _____ _____    ______ ____
ROOT
ATOM      1  C   UNL     1      47.430   6.370  12.685  0.00  0.00    +0.000 C 
ENDROOT
BRANCH   1   2
ATOM      2  C   UNL     1      47.619   5.828  14.076  0.00  0.00    +0.000 A 
ATOM      3  C   UNL     1      46.957   4.655  14.465  0.00  0.00    +0.000 A 
ATOM      4  C   UNL     1      47.168   4.120  15.731  0.00  0.00    +0.000 A 
ATOM      5  C   UNL     1      48.067   4.730  16.617  0.00  0.00    +0.000 A 
ATOM      6  C   UNL     1      48.689   5.926  16.250  0.00  0.00    +0.000 A 
ATOM      7  C   UNL     1      48.463   6.473  14.987  0.00  0.00    +0.000 A 
BRANCH   5   8
ATOM      8  C   UNL     1      48.372   4.073  17.936  0.00  0.00    +0.000 C 
BRANCH   8   9
ATOM      9  C   UNL     1      49.454   4.863  18.700  0.00  0.00    +0.000 C 
BRANCH   9  10
ATOM     10  C   UNL     1      50.865   4.287  18.543  0.00  0.00    +0.000 C 
BRANCH  10  11
ATOM     11  N   UNL     1      51.731   5.335  18.076  0.00  0.00    +0.000 NA
ATOM     12  C   UNL     1      51.570   6.695  18.565  0.00  0.00    +0.000 C 
ATOM     13  C   UNL     1      52.036   7.667  17.467  0.00  0.00    +0.000 C 
ATOM     14  O   UNL     1      53.378   7.378  17.040  0.00  0.00    +0.000 OA
ATOM     15  C   UNL     1      53.468   6.032  16.546  0.00  0.00    +0.000 C 
ATOM     16  C   UNL     1      53.070   5.009  17.622  0.00  0.00    +0.000 C 
ENDBRANCH  10  11
ENDBRANCH   9  10
ENDBRANCH   8   9
ENDBRANCH   5   8
ENDBRANCH   1   2
BRANCH   1  18
ATOM     17  C   UNL     1      46.564   8.706  13.169  0.00  0.00    +0.000 C 
ATOM     18  N   UNL     1      46.431   7.425  12.489  0.00  0.00    +0.000 N 
ATOM     19  C   UNL     1      45.372   7.327  11.569  0.00  0.00    +0.000 C 
ATOM     20  O   UNL     1      44.617   8.280  11.378  0.00  0.00    +0.000 OA
BRANCH  19  21
ATOM     21  C   UNL     1      45.135   6.065  10.858  0.00  0.00    +0.000 A 
ATOM     22  C   UNL     1      45.691   5.730   9.634  0.00  0.00    +0.000 A 
ATOM     23  S   UNL     1      45.303   4.152   9.110  0.00  0.00    +0.000 S 
ATOM     24  C   UNL     1      44.494   3.814  10.569  0.00  0.00    +0.000 A 
ATOM     25  N   UNL     1      44.010   2.569  10.829  0.00  0.00    +0.000 NA
ATOM     26  C   UNL     1      43.495   2.442  12.010  0.00  0.00    +0.000 A 
ATOM     27  N   UNL     1      43.383   3.450  12.931  0.00  0.00    +0.000 N 
ATOM     28  C   UNL     1      43.731   4.757  12.654  0.00  0.00    +0.000 A 
ATOM     29  O   UNL     1      43.390   5.668  13.398  0.00  0.00    +0.000 OA
ATOM     30  C   UNL     1      44.437   4.919  11.395  0.00  0.00    +0.000 A 
ATOM     31  H   UNL     1      42.908   3.300  13.806  0.00  0.00    +0.000 HD
ENDBRANCH  19  21
ENDBRANCH   1  18
TORSDOF 7
ENDMDL
MODEL 9
REMARK VINA RESULT:    -5.614      3.494      4.985
REMARK INTER + INTRA:          -9.154
REMARK INTER:                  -7.330
REMARK INTRA:                  -1.824
REMARK UNBOUND:                -1.243
REMARK  Name = 
REMARK  8 active torsions:
REMARK  status: ('A' for Active; 'I' for Inactive)
REMARK    1  A    between atoms: C_1  and  N_2
REMARK    2  A    between atoms: N_2  and  C_3
REMARK    3  A    between atoms: C_3  and  C_4
REMARK    4  A    between atoms: C_7  and  C_8
REMARK    5  A    between atoms: C_8  and  C_9
REMARK    6  A    between atoms: C_9  and  C_10
REMARK    7  A    between atoms: C_10  and  N_11
REMARK    8  A    between atoms: C_19  and  C_21
REMARK                            x       y       z     vdW  Elec       q    Type
REMARK                         _______ _______ _______ _____ _____    ______ ____
ROOT
ATOM      1  C   UNL     1      49.219  10.679  14.619  0.00  0.00    +0.000 C 
ENDROOT
BRANCH   1   2
ATOM      2  C   UNL     1      49.286   9.888  15.898  0.00  0.00    +0.000 A 
ATOM      3  C   UNL     1      48.152   9.200  16.355  0.00  0.00    +0.000 A 
ATOM      4  C   UNL     1      48.221   8.425  17.506  0.00  0.00    +0.000 A 
ATOM      5  C   UNL     1      49.431   8.298  18.204  0.00  0.00    +0.000 A 
ATOM      6  C   UNL     1      50.547   9.023  17.779  0.00  0.00    +0.000 A 
ATOM      7  C   UNL     1      50.473   9.815  16.635  0.00  0.00    +0.000 A 
BRANCH   5   8
ATOM      8  C   UNL     1      49.517   7.362  19.380  0.00  0.00    +0.000 C 
BRANCH   8   9
ATOM      9  C   UNL     1      50.295   6.086  19.003  0.00  0.00    +0.000 C 
BRANCH   9  10
ATOM     10  C   UNL     1      49.556   4.789  19.348  0.00  0.00    +0.000 C 
BRANCH  10  11
ATOM     11  N   UNL     1      49.281   4.086  18.124  0.00  0.00    +0.000 NA
ATOM     12  C   UNL     1      48.358   4.642  17.148  0.00  0.00    +0.000 C 
ATOM     13  C   UNL     1      47.703   3.481  16.381  0.00  0.00    +0.000 C 
ATOM     14  O   UNL     1      48.686   2.613  15.793  0.00  0.00    +0.000 OA
ATOM     15  C   UNL     1      49.552   2.077  16.807  0.00  0.00    +0.000 C 
ATOM     16  C   UNL     1      50.282   3.193  17.571  0.00  0.00    +0.000 C 
ENDBRANCH  10  11
ENDBRANCH   9  10
ENDBRANCH   8   9
ENDBRANCH   5   8
ENDBRANCH   1   2
BRANCH   1  18
ATOM     17  C   UNL     1      51.361  10.401  13.287  0.00  0.00    +0.000 C 
ATOM     18  N   UNL     1      49.935  10.156  13.452  0.00  0.00    +0.000 N 
ATOM     19  C   UNL     1      49.345   9.305  12.499  0.00  0.00    +0.000 C 
ATOM     20  O   UNL     1      50.018   8.821  11.589  0.00  0.00    +0.000 OA
BRANCH  19  21
ATOM     21  C   UNL     1      47.906   9.024  12.560  0.00  0.00    +0.000 A 
ATOM     22  C   UNL     1      46.914   9.875  12.100  0.00  0.00    +0.000 A 
ATOM     23  S   UNL     1      45.340   9.225  12.222  0.00  0.00    +0.000 S 
ATOM     24  C   UNL     1      45.946   7.729  12.762  0.00  0.00    +0.000 A 
ATOM     25  N   UNL     1      45.119   6.665  12.949  0.00  0.00    +0.000 NA
ATOM     26  C   UNL     1      45.733   5.574  13.280  0.00  0.00    +0.000 A 
ATOM     27  N   UNL     1      47.084   5.463  13.482  0.00  0.00    +0.000 N 
ATOM     28  C   UNL     1      47.937   6.548  13.441  0.00  0.00    +0.000 A 
ATOM     29  O   UNL     1      49.082   6.462  13.867  0.00  0.00    +0.000 OA
ATOM     30  C   UNL     1      47.315   7.762  12.941  0.00  0.00    +0.000 A 
ATOM     31  H   UNL     1      47.489   4.600  13.806  0.00  0.00    +0.000 HD
ENDBRANCH  19  21
ENDBRANCH   1  18
TORSDOF 7
ENDMDL
