MODEL 1
REMARK VINA RESULT:    -8.372      0.000      0.000
REMARK INTER + INTRA:         -13.769
REMARK INTER:                 -12.776
REMARK INTRA:                  -0.992
REMARK UNBOUND:                -0.992
REMARK  Name = 
REMARK  10 active torsions:
REMARK  status: ('A' for Active; 'I' for Inactive)
REMARK    1  A    between atoms: C_1  and  O_2
REMARK    2  A    between atoms: O_2  and  C_3
REMARK    3  A    between atoms: C_3  and  C_4
REMARK    4  A    between atoms: C_4  and  N_5
REMARK    5  A    between atoms: C_4  and  C_13
REMARK    6  A    between atoms: N_5  and  C_6
REMARK    7  A    between atoms: C_6  and  C_7
REMARK    8  A    between atoms: C_16  and  C_17
REMARK    9  A    between atoms: C_17  and  N_18
REMARK   10  A    between atoms: C_19  and  C_21
REMARK                            x       y       z     vdW  Elec       q    Type
REMARK                         _______ _______ _______ _____ _____    ______ ____
ROOT
ATOM      1  C   UNL     1      45.572   4.450  11.950  0.00  0.00    +0.000 A 
ATOM      2  C   UNL     1      46.156   4.272  13.215  0.00  0.00    +0.000 A 
ATOM      3  C   UNL     1      47.025   5.228  13.745  0.00  0.00    +0.000 A 
ATOM      4  C   UNL     1      47.286   6.414  13.052  0.00  0.00    +0.000 A 
ATOM      5  C   UNL     1      46.733   6.587  11.780  0.00  0.00    +0.000 A 
ATOM      6  C   UNL     1      45.904   5.609  11.229  0.00  0.00    +0.000 A 
ENDROOT
BRANCH   1   7
ATOM      7  C   UNL     1      44.654   3.363  11.379  0.00  0.00    +0.000 C 
BRANCH   7   8
ATOM      8  N   UNL     1      44.579   3.431   9.907  0.00  0.00    +0.000 NA
ATOM      9  H   UNL     1      45.248   4.109   9.559  0.00  0.00    +0.000 HD
BRANCH   8  10
ATOM     10  C   UNL     1      44.807   2.140   9.250  0.00  0.00    +0.000 C 
BRANCH  10  11
ATOM     11  C   UNL     1      45.850   2.236   8.174  0.00  0.00    +0.000 A 
ATOM     12  C   UNL     1      46.040   3.406   7.437  0.00  0.00    +0.000 A 
ATOM     13  C   UNL     1      47.023   3.448   6.457  0.00  0.00    +0.000 A 
ATOM     14  C   UNL     1      47.784   2.308   6.238  0.00  0.00    +0.000 A 
ATOM     15  N   UNL     1      47.627   1.157   6.923  0.00  0.00    +0.000 NA
ATOM     16  C   UNL     1      46.664   1.146   7.871  0.00  0.00    +0.000 A 
ENDBRANCH  10  11
ENDBRANCH   8  10
ENDBRANCH   7   8
BRANCH   7  17
ATOM     17  C   UNL     1      43.234   3.464  12.018  0.00  0.00    +0.000 C 
BRANCH  17  19
ATOM     18  C   UNL     1      42.258   5.583  11.756  0.00  0.00    +0.000 C 
ATOM     19  O   UNL     1      42.974   4.726  12.643  0.00  0.00    +0.000 OA
ENDBRANCH  17  19
ENDBRANCH   7  17
ENDBRANCH   1   7
BRANCH   4  20
ATOM     20  C   UNL     1      48.144   7.486  13.667  0.00  0.00    +0.000 C 
BRANCH  20  21
ATOM     21  N   UNL     1      48.097   7.457  15.106  0.00  0.00    +0.000 N 
ATOM     22  C   UNL     1      49.138   7.009  15.875  0.00  0.00    +0.000 C 
ATOM     23  O   UNL     1      50.201   6.634  15.389  0.00  0.00    +0.000 OA
ATOM     24  H   UNL     1      47.199   7.652  15.534  0.00  0.00    +0.000 HD
BRANCH  22  25
ATOM     25  C   UNL     1      48.929   7.039  17.328  0.00  0.00    +0.000 A 
ATOM     26  C   UNL     1      48.719   8.253  17.966  0.00  0.00    +0.000 A 
ATOM     27  S   UNL     1      48.450   8.106  19.644  0.00  0.00    +0.000 S 
ATOM     28  C   UNL     1      48.653   6.418  19.585  0.00  0.00    +0.000 A 
ATOM     29  N   UNL     1      48.564   5.664  20.714  0.00  0.00    +0.000 NA
ATOM     30  C   UNL     1      48.776   4.402  20.533  0.00  0.00    +0.000 A 
ATOM     31  N   UNL     1      49.066   3.827  19.323  0.00  0.00    +0.000 N 
ATOM     32  C   UNL     1      49.121   4.541  18.151  0.00  0.00    +0.000 A 
ATOM     33  O   UNL     1      49.306   3.979  17.075  0.00  0.00    +0.000 OA
ATOM     34  C   UNL     1      48.909   5.970  18.301  0.00  0.00    +0.000 A 
ATOM     35  H   UNL     1      49.207   2.831  19.248  0.00  0.00    +0.000 HD
ENDBRANCH  22  25
ENDBRANCH  20  21
ENDBRANCH   4  20
TORSDOF 9
ENDMDL
MODEL 2
REMARK VINA RESULT:    -8.283      1.531      2.187
REMARK INTER + INTRA:         -13.634
REMARK INTER:                 -12.297
REMARK INTRA:                  -1.337
REMARK UNBOUND:                -0.992
REMARK  Name = 
REMARK  10 active torsions:
REMARK  status: ('A' for Active; 'I' for Inactive)
REMARK    1  A    between atoms: C_1  and  O_2
REMARK    2  A    between atoms: O_2  and  C_3
REMARK    3  A    between atoms: C_3  and  C_4
REMARK    4  A    between atoms: C_4  and  N_5
REMARK    5  A    between atoms: C_4  and  C_13
REMARK    6  A    between atoms: N_5  and  C_6
REMARK    7  A    between atoms: C_6  and  C_7
REMARK    8  A    between atoms: C_16  and  C_17
REMARK    9  A    between atoms: C_17  and  N_18
REMARK   10  A    between atoms: C_19  and  C_21
REMARK                            x       y       z     vdW  Elec       q    Type
REMARK                         _______ _______ _______ _____ _____    ______ ____
ROOT
ATOM      1  C   UNL     1      45.902   5.386  11.706  0.00  0.00    +0.000 A 
ATOM      2  C   UNL     1      46.175   4.831  12.968  0.00  0.00    +0.000 A 
ATOM      3  C   UNL     1      47.108   5.419  13.824  0.00  0.00    +0.000 A 
ATOM      4  C   UNL     1      47.748   6.611  13.469  0.00  0.00    +0.000 A 
ATOM      5  C   UNL     1      47.505   7.154  12.204  0.00  0.00    +0.000 A 
ATOM      6  C   UNL     1      46.609   6.539  11.328  0.00  0.00    +0.000 A 
ENDROOT
BRANCH   1   7
ATOM      7  C   UNL     1      44.903   4.693  10.774  0.00  0.00    +0.000 C 
BRANCH   7   8
ATOM      8  N   UNL     1      45.145   5.042   9.360  0.00  0.00    +0.000 NA
ATOM      9  H   UNL     1      46.140   5.147   9.197  0.00  0.00    +0.000 HD
BRANCH   8  10
ATOM     10  C   UNL     1      44.598   4.063   8.415  0.00  0.00    +0.000 C 
BRANCH  10  11
ATOM     11  C   UNL     1      45.648   3.104   7.932  0.00  0.00    +0.000 A 
ATOM     12  C   UNL     1      46.608   3.478   6.990  0.00  0.00    +0.000 A 
ATOM     13  C   UNL     1      47.563   2.557   6.580  0.00  0.00    +0.000 A 
ATOM     14  C   UNL     1      47.523   1.281   7.123  0.00  0.00    +0.000 A 
ATOM     15  N   UNL     1      46.609   0.878   8.029  0.00  0.00    +0.000 NA
ATOM     16  C   UNL     1      45.692   1.796   8.410  0.00  0.00    +0.000 A 
ENDBRANCH  10  11
ENDBRANCH   8  10
ENDBRANCH   7   8
BRANCH   7  17
ATOM     17  C   UNL     1      43.440   5.040  11.194  0.00  0.00    +0.000 C 
BRANCH  17  19
ATOM     18  C   UNL     1      43.312   2.760  11.740  0.00  0.00    +0.000 C 
ATOM     19  O   UNL     1      42.848   4.069  12.064  0.00  0.00    +0.000 OA
ENDBRANCH  17  19
ENDBRANCH   7  17
ENDBRANCH   1   7
BRANCH   4  20
ATOM     20  C   UNL     1      48.679   7.296  14.432  0.00  0.00    +0.000 C 
BRANCH  20  21
ATOM     21  N   UNL     1      48.446   6.886  15.793  0.00  0.00    +0.000 N 
ATOM     22  C   UNL     1      49.413   6.307  16.570  0.00  0.00    +0.000 C 
ATOM     23  O   UNL     1      50.559   6.131  16.170  0.00  0.00    +0.000 OA
ATOM     24  H   UNL     1      47.485   6.913  16.116  0.00  0.00    +0.000 HD
BRANCH  22  25
ATOM     25  C   UNL     1      49.012   5.942  17.935  0.00  0.00    +0.000 A 
ATOM     26  C   UNL     1      49.186   4.637  18.375  0.00  0.00    +0.000 A 
ATOM     27  S   UNL     1      48.711   4.392  19.994  0.00  0.00    +0.000 S 
ATOM     28  C   UNL     1      48.209   6.010  20.150  0.00  0.00    +0.000 A 
ATOM     29  N   UNL     1      47.673   6.467  21.314  0.00  0.00    +0.000 NA
ATOM     30  C   UNL     1      47.299   7.703  21.283  0.00  0.00    +0.000 A 
ATOM     31  N   UNL     1      47.418   8.526  20.193  0.00  0.00    +0.000 N 
ATOM     32  C   UNL     1      47.994   8.122  19.012  0.00  0.00    +0.000 A 
ATOM     33  O   UNL     1      48.154   8.910  18.084  0.00  0.00    +0.000 OA
ATOM     34  C   UNL     1      48.413   6.732  18.987  0.00  0.00    +0.000 A 
ATOM     35  H   UNL     1      47.119   9.488  20.239  0.00  0.00    +0.000 HD
ENDBRANCH  22  25
ENDBRANCH  20  21
ENDBRANCH   4  20
TORSDOF 9
ENDMDL
MODEL 3
REMARK VINA RESULT:    -7.954      2.117      2.548
REMARK INTER + INTRA:         -13.131
REMARK INTER:                 -11.996
REMARK INTRA:                  -1.135
REMARK UNBOUND:                -0.992
REMARK  Name = 
REMARK  10 active torsions:
REMARK  status: ('A' for Active; 'I' for Inactive)
REMARK    1  A    between atoms: C_1  and  O_2
REMARK    2  A    between atoms: O_2  and  C_3
REMARK    3  A    between atoms: C_3  and  C_4
REMARK    4  A    between atoms: C_4  and  N_5
REMARK    5  A    between atoms: C_4  and  C_13
REMARK    6  A    between atoms: N_5  and  C_6
REMARK    7  A    between atoms: C_6  and  C_7
REMARK    8  A    between atoms: C_16  and  C_17
REMARK    9  A    between atoms: C_17  and  N_18
REMARK   10  A    between atoms: C_19  and  C_21
REMARK                            x       y       z     vdW  Elec       q    Type
REMARK                         _______ _______ _______ _____ _____    ______ ____
ROOT
ATOM      1  C   UNL     1      45.829   4.783  12.378  0.00  0.00    +0.000 A 
ATOM      2  C   UNL     1      46.205   4.304  13.644  0.00  0.00    +0.000 A 
ATOM      3  C   UNL     1      47.097   5.020  14.446  0.00  0.00    +0.000 A 
ATOM      4  C   UNL     1      47.588   6.262  14.031  0.00  0.00    +0.000 A 
ATOM      5  C   UNL     1      47.242   6.732  12.760  0.00  0.00    +0.000 A 
ATOM      6  C   UNL     1      46.390   5.993  11.939  0.00  0.00    +0.000 A 
ENDROOT
BRANCH   1   7
ATOM      7  C   UNL     1      44.881   3.954  11.505  0.00  0.00    +0.000 C 
BRANCH   7   8
ATOM      8  N   UNL     1      45.596   2.877  10.793  0.00  0.00    +0.000 NA
ATOM      9  H   UNL     1      45.777   2.106  11.428  0.00  0.00    +0.000 HD
BRANCH   8  10
ATOM     10  C   UNL     1      44.881   2.380   9.614  0.00  0.00    +0.000 C 
BRANCH  10  11
ATOM     11  C   UNL     1      45.766   2.333   8.402  0.00  0.00    +0.000 A 
ATOM     12  C   UNL     1      45.982   3.457   7.604  0.00  0.00    +0.000 A 
ATOM     13  C   UNL     1      46.816   3.365   6.497  0.00  0.00    +0.000 A 
ATOM     14  C   UNL     1      47.404   2.140   6.217  0.00  0.00    +0.000 A 
ATOM     15  N   UNL     1      47.215   1.028   6.957  0.00  0.00    +0.000 NA
ATOM     16  C   UNL     1      46.400   1.149   8.029  0.00  0.00    +0.000 A 
ENDBRANCH  10  11
ENDBRANCH   8  10
ENDBRANCH   7   8
BRANCH   7  17
ATOM     17  C   UNL     1      44.120   4.878  10.504  0.00  0.00    +0.000 C 
BRANCH  17  19
ATOM     18  C   UNL     1      42.385   5.746  11.826  0.00  0.00    +0.000 C 
ATOM     19  O   UNL     1      42.704   4.910  10.716  0.00  0.00    +0.000 OA
ENDBRANCH  17  19
ENDBRANCH   7  17
ENDBRANCH   1   7
BRANCH   4  20
ATOM     20  C   UNL     1      48.470   7.077  14.937  0.00  0.00    +0.000 C 
BRANCH  20  21
ATOM     21  N   UNL     1      49.509   6.282  15.539  0.00  0.00    +0.000 N 
ATOM     22  C   UNL     1      49.497   5.921  16.860  0.00  0.00    +0.000 C 
ATOM     23  O   UNL     1      48.579   6.222  17.616  0.00  0.00    +0.000 OA
ATOM     24  H   UNL     1      50.334   6.113  14.975  0.00  0.00    +0.000 HD
BRANCH  22  25
ATOM     25  C   UNL     1      50.635   5.114  17.319  0.00  0.00    +0.000 A 
ATOM     26  C   UNL     1      51.767   5.743  17.817  0.00  0.00    +0.000 A 
ATOM     27  S   UNL     1      52.974   4.661  18.346  0.00  0.00    +0.000 S 
ATOM     28  C   UNL     1      52.047   3.312  17.882  0.00  0.00    +0.000 A 
ATOM     29  N   UNL     1      52.521   2.048  18.048  0.00  0.00    +0.000 NA
ATOM     30  C   UNL     1      51.732   1.119  17.619  0.00  0.00    +0.000 A 
ATOM     31  N   UNL     1      50.509   1.342  17.041  0.00  0.00    +0.000 N 
ATOM     32  C   UNL     1      49.970   2.598  16.894  0.00  0.00    +0.000 A 
ATOM     33  O   UNL     1      48.838   2.752  16.443  0.00  0.00    +0.000 OA
ATOM     34  C   UNL     1      50.827   3.681  17.343  0.00  0.00    +0.000 A 
ATOM     35  H   UNL     1      49.934   0.570  16.739  0.00  0.00    +0.000 HD
ENDBRANCH  22  25
ENDBRANCH  20  21
ENDBRANCH   4  20
TORSDOF 9
ENDMDL
MODEL 4
REMARK VINA RESULT:    -7.939      1.279      1.702
REMARK INTER + INTRA:         -13.109
REMARK INTER:                 -12.017
REMARK INTRA:                  -1.092
REMARK UNBOUND:                -0.992
REMARK  Name = 
REMARK  10 active torsions:
REMARK  status: ('A' for Active; 'I' for Inactive)
REMARK    1  A    between atoms: C_1  and  O_2
REMARK    2  A    between atoms: O_2  and  C_3
REMARK    3  A    between atoms: C_3  and  C_4
REMARK    4  A    between atoms: C_4  and  N_5
REMARK    5  A    between atoms: C_4  and  C_13
REMARK    6  A    between atoms: N_5  and  C_6
REMARK    7  A    between atoms: C_6  and  C_7
REMARK    8  A    between atoms: C_16  and  C_17
REMARK    9  A    between atoms: C_17  and  N_18
REMARK   10  A    between atoms: C_19  and  C_21
REMARK                            x       y       z     vdW  Elec       q    Type
REMARK                         _______ _______ _______ _____ _____    ______ ____
ROOT
ATOM      1  C   UNL     1      45.565   6.055  11.438  0.00  0.00    +0.000 A 
ATOM      2  C   UNL     1      46.725   5.787  12.183  0.00  0.00    +0.000 A 
ATOM      3  C   UNL     1      47.356   6.794  12.916  0.00  0.00    +0.000 A 
ATOM      4  C   UNL     1      46.810   8.081  12.974  0.00  0.00    +0.000 A 
ATOM      5  C   UNL     1      45.672   8.364  12.212  0.00  0.00    +0.000 A 
ATOM      6  C   UNL     1      45.070   7.370  11.440  0.00  0.00    +0.000 A 
ENDROOT
BRANCH   1   7
ATOM      7  C   UNL     1      44.920   4.938  10.611  0.00  0.00    +0.000 C 
BRANCH   7   8
ATOM      8  N   UNL     1      45.211   5.087   9.172  0.00  0.00    +0.000 NA
ATOM      9  H   UNL     1      46.213   5.149   9.028  0.00  0.00    +0.000 HD
BRANCH   8  10
ATOM     10  C   UNL     1      44.668   4.001   8.351  0.00  0.00    +0.000 C 
BRANCH  10  11
ATOM     11  C   UNL     1      45.746   3.080   7.856  0.00  0.00    +0.000 A 
ATOM     12  C   UNL     1      45.809   1.742   8.251  0.00  0.00    +0.000 A 
ATOM     13  C   UNL     1      46.822   0.928   7.761  0.00  0.00    +0.000 A 
ATOM     14  C   UNL     1      47.750   1.483   6.892  0.00  0.00    +0.000 A 
ATOM     15  N   UNL     1      47.729   2.771   6.492  0.00  0.00    +0.000 NA
ATOM     16  C   UNL     1      46.732   3.539   6.985  0.00  0.00    +0.000 A 
ENDBRANCH  10  11
ENDBRANCH   8  10
ENDBRANCH   7   8
BRANCH   7  17
ATOM     17  C   UNL     1      43.381   4.892  10.870  0.00  0.00    +0.000 C 
BRANCH  17  19
ATOM     18  C   UNL     1      43.655   3.045  12.294  0.00  0.00    +0.000 C 
ATOM     19  O   UNL     1      42.897   3.589  11.216  0.00  0.00    +0.000 OA
ENDBRANCH  17  19
ENDBRANCH   7  17
ENDBRANCH   1   7
BRANCH   4  20
ATOM     20  C   UNL     1      47.435   9.139  13.842  0.00  0.00    +0.000 C 
BRANCH  20  21
ATOM     21  N   UNL     1      47.468   8.750  15.229  0.00  0.00    +0.000 N 
ATOM     22  C   UNL     1      48.633   8.484  15.898  0.00  0.00    +0.000 C 
ATOM     23  O   UNL     1      49.735   8.594  15.370  0.00  0.00    +0.000 OA
ATOM     24  H   UNL     1      46.576   8.540  15.662  0.00  0.00    +0.000 HD
BRANCH  22  25
ATOM     25  C   UNL     1      48.494   8.094  17.307  0.00  0.00    +0.000 A 
ATOM     26  C   UNL     1      48.207   9.060  18.261  0.00  0.00    +0.000 A 
ATOM     27  S   UNL     1      48.036   8.435  19.838  0.00  0.00    +0.000 S 
ATOM     28  C   UNL     1      48.388   6.856  19.310  0.00  0.00    +0.000 A 
ATOM     29  N   UNL     1      48.424   5.817  20.188  0.00  0.00    +0.000 NA
ATOM     30  C   UNL     1      48.741   4.681  19.660  0.00  0.00    +0.000 A 
ATOM     31  N   UNL     1      49.021   4.490  18.332  0.00  0.00    +0.000 N 
ATOM     32  C   UNL     1      48.953   5.499  17.402  0.00  0.00    +0.000 A 
ATOM     33  O   UNL     1      49.134   5.274  16.208  0.00  0.00    +0.000 OA
ATOM     34  C   UNL     1      48.620   6.804  17.947  0.00  0.00    +0.000 A 
ATOM     35  H   UNL     1      49.248   3.572  17.981  0.00  0.00    +0.000 HD
ENDBRANCH  22  25
ENDBRANCH  20  21
ENDBRANCH   4  20
TORSDOF 9
ENDMDL
MODEL 5
REMARK VINA RESULT:    -7.266      3.781      5.123
REMARK INTER + INTRA:         -12.081
REMARK INTER:                 -10.771
REMARK INTRA:                  -1.310
REMARK UNBOUND:                -0.992
REMARK  Name = 
REMARK  10 active torsions:
REMARK  status: ('A' for Active; 'I' for Inactive)
REMARK    1  A    between atoms: C_1  and  O_2
REMARK    2  A    between atoms: O_2  and  C_3
REMARK    3  A    between atoms: C_3  and  C_4
REMARK    4  A    between atoms: C_4  and  N_5
REMARK    5  A    between atoms: C_4  and  C_13
REMARK    6  A    between atoms: N_5  and  C_6
REMARK    7  A    between atoms: C_6  and  C_7
REMARK    8  A    between atoms: C_16  and  C_17
REMARK    9  A    between atoms: C_17  and  N_18
REMARK   10  A    between atoms: C_19  and  C_21
REMARK                            x       y       z     vdW  Elec       q    Type
REMARK                         _______ _______ _______ _____ _____    ______ ____
ROOT
ATOM      1  C   UNL     1      45.567   6.142  11.524  0.00  0.00    +0.000 A 
ATOM      2  C   UNL     1      46.769   5.829  12.182  0.00  0.00    +0.000 A 
ATOM      3  C   UNL     1      47.486   6.807  12.873  0.00  0.00    +0.000 A 
ATOM      4  C   UNL     1      46.991   8.112  12.976  0.00  0.00    +0.000 A 
ATOM      5  C   UNL     1      45.812   8.440  12.301  0.00  0.00    +0.000 A 
ATOM      6  C   UNL     1      45.121   7.473  11.569  0.00  0.00    +0.000 A 
ENDROOT
BRANCH   1   7
ATOM      7  C   UNL     1      44.826   5.054  10.741  0.00  0.00    +0.000 C 
BRANCH   7   8
ATOM      8  N   UNL     1      45.130   5.117   9.298  0.00  0.00    +0.000 NA
ATOM      9  H   UNL     1      46.135   5.149   9.160  0.00  0.00    +0.000 HD
BRANCH   8  10
ATOM     10  C   UNL     1      44.568   4.000   8.533  0.00  0.00    +0.000 C 
BRANCH  10  11
ATOM     11  C   UNL     1      45.639   3.086   8.010  0.00  0.00    +0.000 A 
ATOM     12  C   UNL     1      46.582   3.517   7.074  0.00  0.00    +0.000 A 
ATOM     13  C   UNL     1      47.557   2.635   6.626  0.00  0.00    +0.000 A 
ATOM     14  C   UNL     1      47.553   1.341   7.125  0.00  0.00    +0.000 A 
ATOM     15  N   UNL     1      46.656   0.883   8.022  0.00  0.00    +0.000 NA
ATOM     16  C   UNL     1      45.720   1.763   8.441  0.00  0.00    +0.000 A 
ENDBRANCH  10  11
ENDBRANCH   8  10
ENDBRANCH   7   8
BRANCH   7  17
ATOM     17  C   UNL     1      43.289   5.157  10.994  0.00  0.00    +0.000 C 
BRANCH  17  19
ATOM     18  C   UNL     1      43.631   3.088  12.048  0.00  0.00    +0.000 C 
ATOM     19  O   UNL     1      42.686   3.916  11.375  0.00  0.00    +0.000 OA
ENDBRANCH  17  19
ENDBRANCH   7  17
ENDBRANCH   1   7
BRANCH   4  20
ATOM     20  C   UNL     1      47.714   9.140  13.802  0.00  0.00    +0.000 C 
BRANCH  20  21
ATOM     21  N   UNL     1      49.095   9.270  13.416  0.00  0.00    +0.000 N 
ATOM     22  C   UNL     1      50.128   8.800  14.182  0.00  0.00    +0.000 C 
ATOM     23  O   UNL     1      49.945   8.201  15.237  0.00  0.00    +0.000 OA
ATOM     24  H   UNL     1      49.287   9.856  12.611  0.00  0.00    +0.000 HD
BRANCH  22  25
ATOM     25  C   UNL     1      51.479   9.018  13.649  0.00  0.00    +0.000 A 
ATOM     26  C   UNL     1      52.436   9.643  14.437  0.00  0.00    +0.000 A 
ATOM     27  S   UNL     1      53.960   9.778  13.685  0.00  0.00    +0.000 S 
ATOM     28  C   UNL     1      53.383   9.049  12.260  0.00  0.00    +0.000 A 
ATOM     29  N   UNL     1      54.199   8.873  11.185  0.00  0.00    +0.000 NA
ATOM     30  C   UNL     1      53.623   8.343  10.157  0.00  0.00    +0.000 A 
ATOM     31  N   UNL     1      52.305   7.968  10.109  0.00  0.00    +0.000 N 
ATOM     32  C   UNL     1      51.457   8.085  11.183  0.00  0.00    +0.000 A 
ATOM     33  O   UNL     1      50.303   7.666  11.127  0.00  0.00    +0.000 OA
ATOM     34  C   UNL     1      52.049   8.695  12.361  0.00  0.00    +0.000 A 
ATOM     35  H   UNL     1      51.921   7.546   9.278  0.00  0.00    +0.000 HD
ENDBRANCH  22  25
ENDBRANCH  20  21
ENDBRANCH   4  20
TORSDOF 9
ENDMDL
MODEL 6
REMARK VINA RESULT:    -7.141      3.097      8.982
REMARK INTER + INTRA:         -11.891
REMARK INTER:                 -10.087
REMARK INTRA:                  -1.804
REMARK UNBOUND:                -0.992
REMARK  Name = 
REMARK  10 active torsions:
REMARK  status: ('A' for Active; 'I' for Inactive)
REMARK    1  A    between atoms: C_1  and  O_2
REMARK    2  A    between atoms: O_2  and  C_3
REMARK    3  A    between atoms: C_3  and  C_4
REMARK    4  A    between atoms: C_4  and  N_5
REMARK    5  A    between atoms: C_4  and  C_13
REMARK    6  A    between atoms: N_5  and  C_6
REMARK    7  A    between atoms: C_6  and  C_7
REMARK    8  A    between atoms: C_16  and  C_17
REMARK    9  A    between atoms: C_17  and  N_18
REMARK   10  A    between atoms: C_19  and  C_21
REMARK                            x       y       z     vdW  Elec       q    Type
REMARK                         _______ _______ _______ _____ _____    ______ ____
ROOT
ATOM      1  C   UNL     1      48.855   8.142  16.076  0.00  0.00    +0.000 A 
ATOM      2  C   UNL     1      48.199   9.185  15.401  0.00  0.00    +0.000 A 
ATOM      3  C   UNL     1      47.889   9.079  14.044  0.00  0.00    +0.000 A 
ATOM      4  C   UNL     1      48.171   7.904  13.340  0.00  0.00    +0.000 A 
ATOM      5  C   UNL     1      48.850   6.872  13.995  0.00  0.00    +0.000 A 
ATOM      6  C   UNL     1      49.204   6.998  15.339  0.00  0.00    +0.000 A 
ENDROOT
BRANCH   1   7
ATOM      7  C   UNL     1      49.219   8.306  17.556  0.00  0.00    +0.000 C 
BRANCH   7   8
ATOM      8  N   UNL     1      49.814   7.076  18.111  0.00  0.00    +0.000 NA
ATOM      9  H   UNL     1      50.616   7.311  18.686  0.00  0.00    +0.000 HD
BRANCH   8  10
ATOM     10  C   UNL     1      48.871   6.272  18.895  0.00  0.00    +0.000 C 
BRANCH  10  11
ATOM     11  C   UNL     1      48.522   4.986  18.203  0.00  0.00    +0.000 A 
ATOM     12  C   UNL     1      49.494   4.039  17.876  0.00  0.00    +0.000 A 
ATOM     13  C   UNL     1      49.121   2.861  17.243  0.00  0.00    +0.000 A 
ATOM     14  C   UNL     1      47.778   2.670  16.947  0.00  0.00    +0.000 A 
ATOM     15  N   UNL     1      46.810   3.562  17.239  0.00  0.00    +0.000 NA
ATOM     16  C   UNL     1      47.203   4.698  17.856  0.00  0.00    +0.000 A 
ENDBRANCH  10  11
ENDBRANCH   8  10
ENDBRANCH   7   8
BRANCH   7  17
ATOM     17  C   UNL     1      47.963   8.741  18.376  0.00  0.00    +0.000 C 
BRANCH  17  19
ATOM     18  C   UNL     1      47.702  11.039  18.781  0.00  0.00    +0.000 C 
ATOM     19  O   UNL     1      48.219   9.812  19.291  0.00  0.00    +0.000 OA
ENDBRANCH  17  19
ENDBRANCH   7  17
ENDBRANCH   1   7
BRANCH   4  20
ATOM     20  C   UNL     1      47.747   7.753  11.904  0.00  0.00    +0.000 C 
BRANCH  20  21
ATOM     21  N   UNL     1      46.986   6.549  11.688  0.00  0.00    +0.000 N 
ATOM     22  C   UNL     1      45.622   6.505  11.791  0.00  0.00    +0.000 C 
ATOM     23  O   UNL     1      44.948   7.499  12.040  0.00  0.00    +0.000 OA
ATOM     24  H   UNL     1      47.515   5.690  11.593  0.00  0.00    +0.000 HD
BRANCH  22  25
ATOM     25  C   UNL     1      44.998   5.198  11.546  0.00  0.00    +0.000 A 
ATOM     26  C   UNL     1      44.307   4.564  12.570  0.00  0.00    +0.000 A 
ATOM     27  S   UNL     1      43.609   3.080  12.107  0.00  0.00    +0.000 S 
ATOM     28  C   UNL     1      44.245   3.206  10.535  0.00  0.00    +0.000 A 
ATOM     29  N   UNL     1      44.028   2.231   9.612  0.00  0.00    +0.000 NA
ATOM     30  C   UNL     1      44.599   2.435   8.471  0.00  0.00    +0.000 A 
ATOM     31  N   UNL     1      45.366   3.531   8.170  0.00  0.00    +0.000 N 
ATOM     32  C   UNL     1      45.575   4.562   9.053  0.00  0.00    +0.000 A 
ATOM     33  O   UNL     1      46.203   5.563   8.721  0.00  0.00    +0.000 OA
ATOM     34  C   UNL     1      44.970   4.372  10.361  0.00  0.00    +0.000 A 
ATOM     35  H   UNL     1      45.773   3.637   7.253  0.00  0.00    +0.000 HD
ENDBRANCH  22  25
ENDBRANCH  20  21
ENDBRANCH   4  20
TORSDOF 9
ENDMDL
MODEL 7
REMARK VINA RESULT:    -7.137      3.479      8.560
REMARK INTER + INTRA:         -11.884
REMARK INTER:                 -10.110
REMARK INTRA:                  -1.775
REMARK UNBOUND:                -0.992
REMARK  Name = 
REMARK  10 active torsions:
REMARK  status: ('A' for Active; 'I' for Inactive)
REMARK    1  A    between atoms: C_1  and  O_2
REMARK    2  A    between atoms: O_2  and  C_3
REMARK    3  A    between atoms: C_3  and  C_4
REMARK    4  A    between atoms: C_4  and  N_5
REMARK    5  A    between atoms: C_4  and  C_13
REMARK    6  A    between atoms: N_5  and  C_6
REMARK    7  A    between atoms: C_6  and  C_7
REMARK    8  A    between atoms: C_16  and  C_17
REMARK    9  A    between atoms: C_17  and  N_18
REMARK   10  A    between atoms: C_19  and  C_21
REMARK                            x       y       z     vdW  Elec       q    Type
REMARK                         _______ _______ _______ _____ _____    ______ ____
ROOT
ATOM      1  C   UNL     1      48.629   7.919  16.348  0.00  0.00    +0.000 A 
ATOM      2  C   UNL     1      48.873   6.771  15.576  0.00  0.00    +0.000 A 
ATOM      3  C   UNL     1      48.754   6.801  14.185  0.00  0.00    +0.000 A 
ATOM      4  C   UNL     1      48.446   7.995  13.524  0.00  0.00    +0.000 A 
ATOM      5  C   UNL     1      48.172   9.135  14.284  0.00  0.00    +0.000 A 
ATOM      6  C   UNL     1      48.244   9.092  15.677  0.00  0.00    +0.000 A 
ENDROOT
BRANCH   1   7
ATOM      7  C   UNL     1      48.729   7.842  17.875  0.00  0.00    +0.000 C 
BRANCH   7   8
ATOM      8  N   UNL     1      47.576   7.132  18.461  0.00  0.00    +0.000 NA
ATOM      9  H   UNL     1      46.926   6.868  17.729  0.00  0.00    +0.000 HD
BRANCH   8  10
ATOM     10  C   UNL     1      47.952   5.943  19.231  0.00  0.00    +0.000 C 
BRANCH  10  11
ATOM     11  C   UNL     1      48.168   4.749  18.346  0.00  0.00    +0.000 A 
ATOM     12  C   UNL     1      49.405   4.107  18.265  0.00  0.00    +0.000 A 
ATOM     13  C   UNL     1      49.552   3.001  17.437  0.00  0.00    +0.000 A 
ATOM     14  C   UNL     1      48.453   2.575  16.705  0.00  0.00    +0.000 A 
ATOM     15  N   UNL     1      47.244   3.172  16.749  0.00  0.00    +0.000 NA
ATOM     16  C   UNL     1      47.130   4.244  17.564  0.00  0.00    +0.000 A 
ENDBRANCH  10  11
ENDBRANCH   8  10
ENDBRANCH   7   8
BRANCH   7  17
ATOM     17  C   UNL     1      48.873   9.274  18.480  0.00  0.00    +0.000 C 
BRANCH  17  19
ATOM     18  C   UNL     1      47.404  11.094  18.684  0.00  0.00    +0.000 C 
ATOM     19  O   UNL     1      47.675   9.757  19.099  0.00  0.00    +0.000 OA
ENDBRANCH  17  19
ENDBRANCH   7  17
ENDBRANCH   1   7
BRANCH   4  20
ATOM     20  C   UNL     1      48.414   8.049  12.020  0.00  0.00    +0.000 C 
BRANCH  20  21
ATOM     21  N   UNL     1      47.659   6.961  11.456  0.00  0.00    +0.000 N 
ATOM     22  C   UNL     1      46.291   6.961  11.392  0.00  0.00    +0.000 C 
ATOM     23  O   UNL     1      45.614   7.908  11.779  0.00  0.00    +0.000 OA
ATOM     24  H   UNL     1      48.176   6.119  11.231  0.00  0.00    +0.000 HD
BRANCH  22  25
ATOM     25  C   UNL     1      45.672   5.772  10.792  0.00  0.00    +0.000 A 
ATOM     26  C   UNL     1      45.817   5.535   9.432  0.00  0.00    +0.000 A 
ATOM     27  S   UNL     1      45.075   4.093   8.906  0.00  0.00    +0.000 S 
ATOM     28  C   UNL     1      44.492   3.757  10.468  0.00  0.00    +0.000 A 
ATOM     29  N   UNL     1      43.743   2.648  10.712  0.00  0.00    +0.000 NA
ATOM     30  C   UNL     1      43.334   2.535  11.932  0.00  0.00    +0.000 A 
ATOM     31  N   UNL     1      43.610   3.430  12.932  0.00  0.00    +0.000 N 
ATOM     32  C   UNL     1      44.398   4.540  12.744  0.00  0.00    +0.000 A 
ATOM     33  O   UNL     1      44.688   5.277  13.682  0.00  0.00    +0.000 OA
ATOM     34  C   UNL     1      44.869   4.726  11.382  0.00  0.00    +0.000 A 
ATOM     35  H   UNL     1      43.270   3.275  13.869  0.00  0.00    +0.000 HD
ENDBRANCH  22  25
ENDBRANCH  20  21
ENDBRANCH   4  20
TORSDOF 9
ENDMDL
MODEL 8
REMARK VINA RESULT:    -6.824      4.844      9.818
REMARK INTER + INTRA:         -11.407
REMARK INTER:                 -10.355
REMARK INTRA:                  -1.052
REMARK UNBOUND:                -0.992
REMARK  Name = 
REMARK  10 active torsions:
REMARK  status: ('A' for Active; 'I' for Inactive)
REMARK    1  A    between atoms: C_1  and  O_2
REMARK    2  A    between atoms: O_2  and  C_3
REMARK    3  A    between atoms: C_3  and  C_4
REMARK    4  A    between atoms: C_4  and  N_5
REMARK    5  A    between atoms: C_4  and  C_13
REMARK    6  A    between atoms: N_5  and  C_6
REMARK    7  A    between atoms: C_6  and  C_7
REMARK    8  A    between atoms: C_16  and  C_17
REMARK    9  A    between atoms: C_17  and  N_18
REMARK   10  A    between atoms: C_19  and  C_21
REMARK                            x       y       z     vdW  Elec       q    Type
REMARK                         _______ _______ _______ _____ _____    ______ ____
ROOT
ATOM      1  C   UNL     1      51.443   2.979  17.754  0.00  0.00    +0.000 A 
ATOM      2  C   UNL     1      50.788   4.190  18.034  0.00  0.00    +0.000 A 
ATOM      3  C   UNL     1      49.434   4.359  17.738  0.00  0.00    +0.000 A 
ATOM      4  C   UNL     1      48.684   3.303  17.210  0.00  0.00    +0.000 A 
ATOM      5  C   UNL     1      49.333   2.105  16.900  0.00  0.00    +0.000 A 
ATOM      6  C   UNL     1      50.697   1.952  17.151  0.00  0.00    +0.000 A 
ENDROOT
BRANCH   1   7
ATOM      7  C   UNL     1      52.939   2.839  18.054  0.00  0.00    +0.000 C 
BRANCH   7   8
ATOM      8  N   UNL     1      53.286   1.467  18.473  0.00  0.00    +0.000 NA
ATOM      9  H   UNL     1      52.610   0.811  18.096  0.00  0.00    +0.000 HD
BRANCH   8  10
ATOM     10  C   UNL     1      54.636   1.058  18.076  0.00  0.00    +0.000 C 
BRANCH  10  11
ATOM     11  C   UNL     1      54.705  -0.407  17.753  0.00  0.00    +0.000 A 
ATOM     12  C   UNL     1      54.492  -1.385  18.726  0.00  0.00    +0.000 A 
ATOM     13  C   UNL     1      54.559  -2.727  18.376  0.00  0.00    +0.000 A 
ATOM     14  C   UNL     1      54.847  -3.051  17.058  0.00  0.00    +0.000 A 
ATOM     15  N   UNL     1      55.068  -2.138  16.091  0.00  0.00    +0.000 NA
ATOM     16  C   UNL     1      54.994  -0.839  16.460  0.00  0.00    +0.000 A 
ENDBRANCH  10  11
ENDBRANCH   8  10
ENDBRANCH   7   8
BRANCH   7  17
ATOM     17  C   UNL     1      53.375   3.881  19.131  0.00  0.00    +0.000 C 
BRANCH  17  19
ATOM     18  C   UNL     1      52.908   4.291  21.395  0.00  0.00    +0.000 C 
ATOM     19  O   UNL     1      53.422   3.347  20.459  0.00  0.00    +0.000 OA
ENDBRANCH  17  19
ENDBRANCH   7  17
ENDBRANCH   1   7
BRANCH   4  20
ATOM     20  C   UNL     1      47.204   3.455  16.983  0.00  0.00    +0.000 C 
BRANCH  20  21
ATOM     21  N   UNL     1      46.911   4.423  15.958  0.00  0.00    +0.000 N 
ATOM     22  C   UNL     1      47.004   4.141  14.621  0.00  0.00    +0.000 C 
ATOM     23  O   UNL     1      47.309   3.028  14.204  0.00  0.00    +0.000 OA
ATOM     24  H   UNL     1      46.767   5.378  16.265  0.00  0.00    +0.000 HD
BRANCH  22  25
ATOM     25  C   UNL     1      46.676   5.240  13.704  0.00  0.00    +0.000 A 
ATOM     26  C   UNL     1      47.609   6.241  13.471  0.00  0.00    +0.000 A 
ATOM     27  S   UNL     1      47.088   7.415  12.350  0.00  0.00    +0.000 S 
ATOM     28  C   UNL     1      45.576   6.654  12.172  0.00  0.00    +0.000 A 
ATOM     29  N   UNL     1      44.625   7.172  11.349  0.00  0.00    +0.000 NA
ATOM     30  C   UNL     1      43.512   6.517  11.337  0.00  0.00    +0.000 A 
ATOM     31  N   UNL     1      43.265   5.387  12.073  0.00  0.00    +0.000 N 
ATOM     32  C   UNL     1      44.209   4.803  12.883  0.00  0.00    +0.000 A 
ATOM     33  O   UNL     1      43.977   3.748  13.466  0.00  0.00    +0.000 OA
ATOM     34  C   UNL     1      45.475   5.513  12.948  0.00  0.00    +0.000 A 
ATOM     35  H   UNL     1      42.377   4.915  12.007  0.00  0.00    +0.000 HD
ENDBRANCH  22  25
ENDBRANCH  20  21
ENDBRANCH   4  20
TORSDOF 9
ENDMDL
MODEL 9
REMARK VINA RESULT:    -6.799      3.518      5.832
REMARK INTER + INTRA:         -11.369
REMARK INTER:                  -9.786
REMARK INTRA:                  -1.583
REMARK UNBOUND:                -0.992
REMARK  Name = 
REMARK  10 active torsions:
REMARK  status: ('A' for Active; 'I' for Inactive)
REMARK    1  A    between atoms: C_1  and  O_2
REMARK    2  A    between atoms: O_2  and  C_3
REMARK    3  A    between atoms: C_3  and  C_4
REMARK    4  A    between atoms: C_4  and  N_5
REMARK    5  A    between atoms: C_4  and  C_13
REMARK    6  A    between atoms: N_5  and  C_6
REMARK    7  A    between atoms: C_6  and  C_7
REMARK    8  A    between atoms: C_16  and  C_17
REMARK    9  A    between atoms: C_17  and  N_18
REMARK   10  A    between atoms: C_19  and  C_21
REMARK                            x       y       z     vdW  Elec       q    Type
REMARK                         _______ _______ _______ _____ _____    ______ ____
ROOT
ATOM      1  C   UNL     1      47.800   6.079  14.423  0.00  0.00    +0.000 A 
ATOM      2  C   UNL     1      48.559   6.395  15.562  0.00  0.00    +0.000 A 
ATOM      3  C   UNL     1      48.641   5.510  16.639  0.00  0.00    +0.000 A 
ATOM      4  C   UNL     1      48.016   4.260  16.582  0.00  0.00    +0.000 A 
ATOM      5  C   UNL     1      47.235   3.948  15.465  0.00  0.00    +0.000 A 
ATOM      6  C   UNL     1      47.113   4.854  14.410  0.00  0.00    +0.000 A 
ENDROOT
BRANCH   1   7
ATOM      7  C   UNL     1      47.697   7.089  13.276  0.00  0.00    +0.000 C 
BRANCH   7   8
ATOM      8  N   UNL     1      47.280   6.443  12.016  0.00  0.00    +0.000 NA
ATOM      9  H   UNL     1      47.275   5.436  12.131  0.00  0.00    +0.000 HD
BRANCH   8  10
ATOM     10  C   UNL     1      45.966   6.886  11.539  0.00  0.00    +0.000 C 
BRANCH  10  11
ATOM     11  C   UNL     1      44.939   5.795  11.637  0.00  0.00    +0.000 A 
ATOM     12  C   UNL     1      44.083   5.686  12.734  0.00  0.00    +0.000 A 
ATOM     13  C   UNL     1      43.145   4.663  12.774  0.00  0.00    +0.000 A 
ATOM     14  C   UNL     1      43.097   3.771  11.712  0.00  0.00    +0.000 A 
ATOM     15  N   UNL     1      43.910   3.836  10.638  0.00  0.00    +0.000 NA
ATOM     16  C   UNL     1      44.813   4.843  10.626  0.00  0.00    +0.000 A 
ENDBRANCH  10  11
ENDBRANCH   8  10
ENDBRANCH   7   8
BRANCH   7  17
ATOM     17  C   UNL     1      49.051   7.845  13.097  0.00  0.00    +0.000 C 
BRANCH  17  19
ATOM     18  C   UNL     1      48.067   9.931  12.666  0.00  0.00    +0.000 C 
ATOM     19  O   UNL     1      48.977   8.946  12.185  0.00  0.00    +0.000 OA
ENDBRANCH  17  19
ENDBRANCH   7  17
ENDBRANCH   1   7
BRANCH   4  20
ATOM     20  C   UNL     1      48.187   3.268  17.700  0.00  0.00    +0.000 C 
BRANCH  20  21
ATOM     21  N   UNL     1      49.573   2.974  17.955  0.00  0.00    +0.000 N 
ATOM     22  C   UNL     1      50.322   2.164  17.144  0.00  0.00    +0.000 C 
ATOM     23  O   UNL     1      49.870   1.661  16.120  0.00  0.00    +0.000 OA
ATOM     24  H   UNL     1      49.944   3.279  18.847  0.00  0.00    +0.000 HD
BRANCH  22  25
ATOM     25  C   UNL     1      51.719   1.959  17.547  0.00  0.00    +0.000 A 
ATOM     26  C   UNL     1      52.200   0.670  17.725  0.00  0.00    +0.000 A 
ATOM     27  S   UNL     1      53.851   0.608  18.149  0.00  0.00    +0.000 S 
ATOM     28  C   UNL     1      53.969   2.306  18.158  0.00  0.00    +0.000 A 
ATOM     29  N   UNL     1      55.141   2.923  18.469  0.00  0.00    +0.000 NA
ATOM     30  C   UNL     1      55.081   4.214  18.475  0.00  0.00    +0.000 A 
ATOM     31  N   UNL     1      53.955   4.943  18.195  0.00  0.00    +0.000 N 
ATOM     32  C   UNL     1      52.762   4.364  17.832  0.00  0.00    +0.000 A 
ATOM     33  O   UNL     1      51.796   5.052  17.512  0.00  0.00    +0.000 OA
ATOM     34  C   UNL     1      52.769   2.911  17.829  0.00  0.00    +0.000 A 
ATOM     35  H   UNL     1      53.979   5.951  18.203  0.00  0.00    +0.000 HD
ENDBRANCH  22  25
ENDBRANCH  20  21
ENDBRANCH   4  20
TORSDOF 9
ENDMDL
