MODEL 1
REMARK VINA RESULT:    -7.635      0.000      0.000
REMARK INTER + INTRA:         -10.897
REMARK INTER:                 -10.313
REMARK INTRA:                  -0.584
REMARK UNBOUND:                -0.584
REMARK  Name = 
REMARK  7 active torsions:
REMARK  status: ('A' for Active; 'I' for Inactive)
REMARK    1  A    between atoms: C_1  and  C_2
REMARK    2  A    between atoms: C_4  and  N_5
REMARK    3  A    between atoms: N_5  and  C_6
REMARK    4  A    between atoms: C_6  and  C_7
REMARK    5  A    between atoms: C_11  and  C_12
REMARK    6  A    between atoms: C_18  and  O_19
REMARK    7  A    between atoms: O_19  and  C_20
REMARK                            x       y       z     vdW  Elec       q    Type
REMARK                         _______ _______ _______ _____ _____    ______ ____
ROOT
ATOM      1  N   UNL     1      44.664   2.682  11.935  0.00  0.00    +0.000 N 
ATOM      2  H   UNL     1      44.175   2.204  12.694  0.00  0.00    +0.000 HD
ENDROOT
BRANCH   1   6
ATOM      3  C   UNL     1      48.049   5.973  13.188  0.00  0.00    +0.000 C 
ATOM      4  C   UNL     1      46.591   5.692  12.984  0.00  0.00    +0.000 A 
ATOM      5  C   UNL     1      46.223   4.367  12.649  0.00  0.00    +0.000 A 
ATOM      6  C   UNL     1      44.910   4.012  12.306  0.00  0.00    +0.000 A 
ATOM      7  C   UNL     1      43.926   4.989  12.416  0.00  0.00    +0.000 A 
ATOM      8  C   UNL     1      44.263   6.295  12.771  0.00  0.00    +0.000 A 
ATOM      9  C   UNL     1      45.585   6.661  13.044  0.00  0.00    +0.000 A 
BRANCH   9  10
ATOM     10  O   UNL     1      45.733   8.012  13.219  0.00  0.00    +0.000 OA
BRANCH  10  11
ATOM     11  C   UNL     1      45.814   8.923  12.103  0.00  0.00    +0.000 C 
ATOM     12  C   UNL     1      46.770  10.129  12.154  0.00  0.00    +0.000 C 
ATOM     13  N   UNL     1      45.650  11.061  11.966  0.00  0.00    +0.000 NA
ATOM     14  C   UNL     1      44.678   9.971  12.080  0.00  0.00    +0.000 C 
ATOM     15  H   UNL     1      45.638  11.537  11.065  0.00  0.00    +0.000 HD
ENDBRANCH  10  11
ENDBRANCH   9  10
ENDBRANCH   1   6
BRANCH   1  16
ATOM     16  C   UNL     1      43.990   2.460  10.657  0.00  0.00    +0.000 C 
BRANCH  16  17
ATOM     17  C   UNL     1      44.881   2.889   9.525  0.00  0.00    +0.000 A 
ATOM     18  C   UNL     1      44.842   4.195   9.044  0.00  0.00    +0.000 A 
ATOM     19  N   UNL     1      45.553   4.633   7.978  0.00  0.00    +0.000 NA
ATOM     20  C   UNL     1      46.345   3.724   7.357  0.00  0.00    +0.000 A 
ATOM     21  C   UNL     1      46.468   2.400   7.752  0.00  0.00    +0.000 A 
ATOM     22  C   UNL     1      45.715   1.985   8.858  0.00  0.00    +0.000 A 
BRANCH  21  23
ATOM     23  C   UNL     1      47.324   1.408   7.058  0.00  0.00    +0.000 C 
ATOM     24  N   UNL     1      48.482   1.822   6.463  0.00  0.00    +0.000 N 
ATOM     25  O   UNL     1      47.005   0.225   7.010  0.00  0.00    +0.000 OA
ATOM     26  H   UNL     1      48.843   2.763   6.449  0.00  0.00    +0.000 HD
ATOM     27  H   UNL     1      49.034   1.106   6.005  0.00  0.00    +0.000 HD
ENDBRANCH  21  23
ENDBRANCH  16  17
ENDBRANCH   1  16
TORSDOF 6
ENDMDL
MODEL 2
REMARK VINA RESULT:    -7.630      2.699      4.118
REMARK INTER + INTRA:         -10.890
REMARK INTER:                 -10.182
REMARK INTRA:                  -0.708
REMARK UNBOUND:                -0.584
REMARK  Name = 
REMARK  7 active torsions:
REMARK  status: ('A' for Active; 'I' for Inactive)
REMARK    1  A    between atoms: C_1  and  C_2
REMARK    2  A    between atoms: C_4  and  N_5
REMARK    3  A    between atoms: N_5  and  C_6
REMARK    4  A    between atoms: C_6  and  C_7
REMARK    5  A    between atoms: C_11  and  C_12
REMARK    6  A    between atoms: C_18  and  O_19
REMARK    7  A    between atoms: O_19  and  C_20
REMARK                            x       y       z     vdW  Elec       q    Type
REMARK                         _______ _______ _______ _____ _____    ______ ____
ROOT
ATOM      1  N   UNL     1      45.166   5.819  10.345  0.00  0.00    +0.000 N 
ATOM      2  H   UNL     1      45.840   5.940   9.587  0.00  0.00    +0.000 HD
ENDROOT
BRANCH   1   6
ATOM      3  C   UNL     1      48.894   7.172  13.198  0.00  0.00    +0.000 C 
ATOM      4  C   UNL     1      47.755   6.219  12.993  0.00  0.00    +0.000 A 
ATOM      5  C   UNL     1      47.017   6.333  11.791  0.00  0.00    +0.000 A 
ATOM      6  C   UNL     1      45.854   5.589  11.546  0.00  0.00    +0.000 A 
ATOM      7  C   UNL     1      45.493   4.625  12.482  0.00  0.00    +0.000 A 
ATOM      8  C   UNL     1      46.223   4.477  13.661  0.00  0.00    +0.000 A 
ATOM      9  C   UNL     1      47.342   5.271  13.934  0.00  0.00    +0.000 A 
BRANCH   9  10
ATOM     10  O   UNL     1      47.825   5.084  15.203  0.00  0.00    +0.000 OA
BRANCH  10  11
ATOM     11  C   UNL     1      47.161   4.228  16.156  0.00  0.00    +0.000 C 
ATOM     12  C   UNL     1      47.121   4.610  17.647  0.00  0.00    +0.000 C 
ATOM     13  N   UNL     1      47.802   3.360  18.014  0.00  0.00    +0.000 NA
ATOM     14  C   UNL     1      48.020   3.024  16.605  0.00  0.00    +0.000 C 
ATOM     15  H   UNL     1      47.221   2.691  18.516  0.00  0.00    +0.000 HD
ENDBRANCH  10  11
ENDBRANCH   9  10
ENDBRANCH   1   6
BRANCH   1  16
ATOM     16  C   UNL     1      44.129   4.859   9.976  0.00  0.00    +0.000 C 
BRANCH  16  17
ATOM     17  C   UNL     1      44.745   3.683   9.269  0.00  0.00    +0.000 A 
ATOM     18  C   UNL     1      44.445   2.381   9.658  0.00  0.00    +0.000 A 
ATOM     19  N   UNL     1      45.021   1.278   9.125  0.00  0.00    +0.000 NA
ATOM     20  C   UNL     1      45.944   1.479   8.152  0.00  0.00    +0.000 A 
ATOM     21  C   UNL     1      46.316   2.730   7.680  0.00  0.00    +0.000 A 
ATOM     22  C   UNL     1      45.699   3.846   8.259  0.00  0.00    +0.000 A 
BRANCH  21  23
ATOM     23  C   UNL     1      47.338   2.943   6.627  0.00  0.00    +0.000 C 
ATOM     24  N   UNL     1      47.018   3.683   5.523  0.00  0.00    +0.000 N 
ATOM     25  O   UNL     1      48.461   2.463   6.734  0.00  0.00    +0.000 OA
ATOM     26  H   UNL     1      46.133   4.128   5.339  0.00  0.00    +0.000 HD
ATOM     27  H   UNL     1      47.751   3.803   4.834  0.00  0.00    +0.000 HD
ENDBRANCH  21  23
ENDBRANCH  16  17
ENDBRANCH   1  16
TORSDOF 6
ENDMDL
MODEL 3
REMARK VINA RESULT:    -7.490      2.378      3.563
REMARK INTER + INTRA:         -10.701
REMARK INTER:                 -10.182
REMARK INTRA:                  -0.519
REMARK UNBOUND:                -0.584
REMARK  Name = 
REMARK  7 active torsions:
REMARK  status: ('A' for Active; 'I' for Inactive)
REMARK    1  A    between atoms: C_1  and  C_2
REMARK    2  A    between atoms: C_4  and  N_5
REMARK    3  A    between atoms: N_5  and  C_6
REMARK    4  A    between atoms: C_6  and  C_7
REMARK    5  A    between atoms: C_11  and  C_12
REMARK    6  A    between atoms: C_18  and  O_19
REMARK    7  A    between atoms: O_19  and  C_20
REMARK                            x       y       z     vdW  Elec       q    Type
REMARK                         _______ _______ _______ _____ _____    ______ ____
ROOT
ATOM      1  N   UNL     1      43.837   3.800  11.395  0.00  0.00    +0.000 N 
ATOM      2  H   UNL     1      43.524   4.634  10.895  0.00  0.00    +0.000 HD
ENDROOT
BRANCH   1   6
ATOM      3  C   UNL     1      46.582   7.399  13.233  0.00  0.00    +0.000 C 
ATOM      4  C   UNL     1      46.375   5.919  13.110  0.00  0.00    +0.000 A 
ATOM      5  C   UNL     1      45.313   5.475  12.286  0.00  0.00    +0.000 A 
ATOM      6  C   UNL     1      44.941   4.126  12.197  0.00  0.00    +0.000 A 
ATOM      7  C   UNL     1      45.729   3.192  12.861  0.00  0.00    +0.000 A 
ATOM      8  C   UNL     1      46.797   3.606  13.656  0.00  0.00    +0.000 A 
ATOM      9  C   UNL     1      47.123   4.959  13.799  0.00  0.00    +0.000 A 
BRANCH   9  10
ATOM     10  O   UNL     1      48.097   5.172  14.738  0.00  0.00    +0.000 OA
BRANCH  10  11
ATOM     11  C   UNL     1      47.820   5.118  16.153  0.00  0.00    +0.000 C 
ATOM     12  C   UNL     1      48.615   5.997  17.135  0.00  0.00    +0.000 C 
ATOM     13  N   UNL     1      49.083   4.811  17.864  0.00  0.00    +0.000 NA
ATOM     14  C   UNL     1      48.488   3.919  16.865  0.00  0.00    +0.000 C 
ATOM     15  H   UNL     1      48.694   4.706  18.800  0.00  0.00    +0.000 HD
ENDBRANCH  10  11
ENDBRANCH   9  10
ENDBRANCH   1   6
BRANCH   1  16
ATOM     16  C   UNL     1      43.987   2.668  10.483  0.00  0.00    +0.000 C 
BRANCH  16  17
ATOM     17  C   UNL     1      44.942   3.023   9.377  0.00  0.00    +0.000 A 
ATOM     18  C   UNL     1      45.022   4.327   8.897  0.00  0.00    +0.000 A 
ATOM     19  N   UNL     1      45.796   4.705   7.852  0.00  0.00    +0.000 NA
ATOM     20  C   UNL     1      46.529   3.736   7.252  0.00  0.00    +0.000 A 
ATOM     21  C   UNL     1      46.533   2.406   7.648  0.00  0.00    +0.000 A 
ATOM     22  C   UNL     1      45.718   2.054   8.732  0.00  0.00    +0.000 A 
BRANCH  21  23
ATOM     23  C   UNL     1      47.326   1.348   6.977  0.00  0.00    +0.000 C 
ATOM     24  N   UNL     1      48.438   1.694   6.263  0.00  0.00    +0.000 N 
ATOM     25  O   UNL     1      46.995   0.169   7.054  0.00  0.00    +0.000 OA
ATOM     26  H   UNL     1      48.803   2.626   6.143  0.00  0.00    +0.000 HD
ATOM     27  H   UNL     1      48.947   0.935   5.827  0.00  0.00    +0.000 HD
ENDBRANCH  21  23
ENDBRANCH  16  17
ENDBRANCH   1  16
TORSDOF 6
ENDMDL
MODEL 4
REMARK VINA RESULT:    -7.304      2.267      2.864
REMARK INTER + INTRA:         -10.450
REMARK INTER:                 -10.036
REMARK INTRA:                  -0.414
REMARK UNBOUND:                -0.584
REMARK  Name = 
REMARK  7 active torsions:
REMARK  status: ('A' for Active; 'I' for Inactive)
REMARK    1  A    between atoms: C_1  and  C_2
REMARK    2  A    between atoms: C_4  and  N_5
REMARK    3  A    between atoms: N_5  and  C_6
REMARK    4  A    between atoms: C_6  and  C_7
REMARK    5  A    between atoms: C_11  and  C_12
REMARK    6  A    between atoms: C_18  and  O_19
REMARK    7  A    between atoms: O_19  and  C_20
REMARK                            x       y       z     vdW  Elec       q    Type
REMARK                         _______ _______ _______ _____ _____    ______ ____
ROOT
ATOM      1  N   UNL     1      44.576   4.868  10.993  0.00  0.00    +0.000 N 
ATOM      2  H   UNL     1      43.704   5.253  11.363  0.00  0.00    +0.000 HD
ENDROOT
BRANCH   1   6
ATOM      3  C   UNL     1      47.103   4.514  15.159  0.00  0.00    +0.000 C 
ATOM      4  C   UNL     1      46.930   5.235  13.857  0.00  0.00    +0.000 A 
ATOM      5  C   UNL     1      45.842   4.850  13.037  0.00  0.00    +0.000 A 
ATOM      6  C   UNL     1      45.655   5.358  11.744  0.00  0.00    +0.000 A 
ATOM      7  C   UNL     1      46.516   6.362  11.312  0.00  0.00    +0.000 A 
ATOM      8  C   UNL     1      47.578   6.776  12.115  0.00  0.00    +0.000 A 
ATOM      9  C   UNL     1      47.804   6.216  13.377  0.00  0.00    +0.000 A 
BRANCH   9  10
ATOM     10  O   UNL     1      48.979   6.639  13.940  0.00  0.00    +0.000 OA
BRANCH  10  11
ATOM     11  C   UNL     1      49.086   7.902  14.629  0.00  0.00    +0.000 C 
ATOM     12  C   UNL     1      48.769   7.997  16.132  0.00  0.00    +0.000 C 
ATOM     13  N   UNL     1      47.718   8.992  15.876  0.00  0.00    +0.000 NA
ATOM     14  C   UNL     1      47.857   8.819  14.428  0.00  0.00    +0.000 C 
ATOM     15  H   UNL     1      47.932   9.932  16.206  0.00  0.00    +0.000 HD
ENDBRANCH  10  11
ENDBRANCH   9  10
ENDBRANCH   1   6
BRANCH   1  16
ATOM     16  C   UNL     1      44.645   5.027   9.543  0.00  0.00    +0.000 C 
BRANCH  16  17
ATOM     17  C   UNL     1      45.160   3.764   8.911  0.00  0.00    +0.000 A 
ATOM     18  C   UNL     1      44.862   2.520   9.460  0.00  0.00    +0.000 A 
ATOM     19  N   UNL     1      45.355   1.347   8.996  0.00  0.00    +0.000 NA
ATOM     20  C   UNL     1      46.188   1.414   7.929  0.00  0.00    +0.000 A 
ATOM     21  C   UNL     1      46.550   2.595   7.297  0.00  0.00    +0.000 A 
ATOM     22  C   UNL     1      46.021   3.787   7.808  0.00  0.00    +0.000 A 
BRANCH  21  23
ATOM     23  C   UNL     1      47.475   2.662   6.140  0.00  0.00    +0.000 C 
ATOM     24  N   UNL     1      48.811   2.459   6.337  0.00  0.00    +0.000 N 
ATOM     25  O   UNL     1      47.055   2.898   5.012  0.00  0.00    +0.000 OA
ATOM     26  H   UNL     1      49.260   2.251   7.215  0.00  0.00    +0.000 HD
ATOM     27  H   UNL     1      49.401   2.511   5.515  0.00  0.00    +0.000 HD
ENDBRANCH  21  23
ENDBRANCH  16  17
ENDBRANCH   1  16
TORSDOF 6
ENDMDL
MODEL 5
REMARK VINA RESULT:    -7.212      1.735      2.605
REMARK INTER + INTRA:         -10.326
REMARK INTER:                 -10.054
REMARK INTRA:                  -0.272
REMARK UNBOUND:                -0.584
REMARK  Name = 
REMARK  7 active torsions:
REMARK  status: ('A' for Active; 'I' for Inactive)
REMARK    1  A    between atoms: C_1  and  C_2
REMARK    2  A    between atoms: C_4  and  N_5
REMARK    3  A    between atoms: N_5  and  C_6
REMARK    4  A    between atoms: C_6  and  C_7
REMARK    5  A    between atoms: C_11  and  C_12
REMARK    6  A    between atoms: C_18  and  O_19
REMARK    7  A    between atoms: O_19  and  C_20
REMARK                            x       y       z     vdW  Elec       q    Type
REMARK                         _______ _______ _______ _____ _____    ______ ____
ROOT
ATOM      1  N   UNL     1      44.475   2.758  12.224  0.00  0.00    +0.000 N 
ATOM      2  H   UNL     1      43.883   2.485  13.011  0.00  0.00    +0.000 HD
ENDROOT
BRANCH   1   6
ATOM      3  C   UNL     1      45.073   7.605  12.349  0.00  0.00    +0.000 C 
ATOM      4  C   UNL     1      45.663   6.261  12.658  0.00  0.00    +0.000 A 
ATOM      5  C   UNL     1      44.925   5.119  12.266  0.00  0.00    +0.000 A 
ATOM      6  C   UNL     1      45.308   3.817  12.615  0.00  0.00    +0.000 A 
ATOM      7  C   UNL     1      46.523   3.654  13.273  0.00  0.00    +0.000 A 
ATOM      8  C   UNL     1      47.280   4.765  13.645  0.00  0.00    +0.000 A 
ATOM      9  C   UNL     1      46.858   6.068  13.356  0.00  0.00    +0.000 A 
BRANCH   9  10
ATOM     10  O   UNL     1      47.653   7.020  13.937  0.00  0.00    +0.000 OA
BRANCH  10  11
ATOM     11  C   UNL     1      49.093   6.934  13.913  0.00  0.00    +0.000 C 
ATOM     12  C   UNL     1      49.938   7.766  14.895  0.00  0.00    +0.000 C 
ATOM     13  N   UNL     1      50.631   8.429  13.782  0.00  0.00    +0.000 NA
ATOM     14  C   UNL     1      49.743   7.795  12.805  0.00  0.00    +0.000 C 
ATOM     15  H   UNL     1      51.612   8.175  13.680  0.00  0.00    +0.000 HD
ENDBRANCH  10  11
ENDBRANCH   9  10
ENDBRANCH   1   6
BRANCH   1  16
ATOM     16  C   UNL     1      43.680   2.948  11.013  0.00  0.00    +0.000 C 
BRANCH  16  17
ATOM     17  C   UNL     1      44.587   3.122   9.825  0.00  0.00    +0.000 A 
ATOM     18  C   UNL     1      44.627   4.328   9.132  0.00  0.00    +0.000 A 
ATOM     19  N   UNL     1      45.355   4.533   8.009  0.00  0.00    +0.000 NA
ATOM     20  C   UNL     1      46.082   3.484   7.551  0.00  0.00    +0.000 A 
ATOM     21  C   UNL     1      46.124   2.240   8.164  0.00  0.00    +0.000 A 
ATOM     22  C   UNL     1      45.355   2.067   9.322  0.00  0.00    +0.000 A 
BRANCH  21  23
ATOM     23  C   UNL     1      46.909   1.093   7.649  0.00  0.00    +0.000 C 
ATOM     24  N   UNL     1      48.013   1.328   6.878  0.00  0.00    +0.000 N 
ATOM     25  O   UNL     1      46.579  -0.061   7.904  0.00  0.00    +0.000 OA
ATOM     26  H   UNL     1      48.377   2.231   6.616  0.00  0.00    +0.000 HD
ATOM     27  H   UNL     1      48.517   0.511   6.554  0.00  0.00    +0.000 HD
ENDBRANCH  21  23
ENDBRANCH  16  17
ENDBRANCH   1  16
TORSDOF 6
ENDMDL
MODEL 6
REMARK VINA RESULT:    -6.925      3.813      7.707
REMARK INTER + INTRA:          -9.938
REMARK INTER:                  -9.354
REMARK INTRA:                  -0.584
REMARK UNBOUND:                -0.584
REMARK  Name = 
REMARK  7 active torsions:
REMARK  status: ('A' for Active; 'I' for Inactive)
REMARK    1  A    between atoms: C_1  and  C_2
REMARK    2  A    between atoms: C_4  and  N_5
REMARK    3  A    between atoms: N_5  and  C_6
REMARK    4  A    between atoms: C_6  and  C_7
REMARK    5  A    between atoms: C_11  and  C_12
REMARK    6  A    between atoms: C_18  and  O_19
REMARK    7  A    between atoms: O_19  and  C_20
REMARK                            x       y       z     vdW  Elec       q    Type
REMARK                         _______ _______ _______ _____ _____    ______ ____
ROOT
ATOM      1  N   UNL     1      46.557   6.483  13.641  0.00  0.00    +0.000 N 
ATOM      2  H   UNL     1      46.092   6.113  14.473  0.00  0.00    +0.000 HD
ENDROOT
BRANCH   1   6
ATOM      3  C   UNL     1      43.402   3.178  11.913  0.00  0.00    +0.000 C 
ATOM      4  C   UNL     1      44.429   4.220  11.586  0.00  0.00    +0.000 A 
ATOM      5  C   UNL     1      45.102   4.834  12.669  0.00  0.00    +0.000 A 
ATOM      6  C   UNL     1      45.985   5.910  12.495  0.00  0.00    +0.000 A 
ATOM      7  C   UNL     1      46.285   6.298  11.194  0.00  0.00    +0.000 A 
ATOM      8  C   UNL     1      45.653   5.687  10.111  0.00  0.00    +0.000 A 
ATOM      9  C   UNL     1      44.719   4.661  10.292  0.00  0.00    +0.000 A 
BRANCH   9  10
ATOM     10  O   UNL     1      44.097   4.302   9.125  0.00  0.00    +0.000 OA
BRANCH  10  11
ATOM     11  C   UNL     1      44.545   3.183   8.332  0.00  0.00    +0.000 C 
ATOM     12  C   UNL     1      45.389   2.066   8.973  0.00  0.00    +0.000 C 
ATOM     13  N   UNL     1      46.485   2.311   8.025  0.00  0.00    +0.000 NA
ATOM     14  C   UNL     1      45.803   3.491   7.488  0.00  0.00    +0.000 C 
ATOM     15  H   UNL     1      46.633   1.569   7.344  0.00  0.00    +0.000 HD
ENDBRANCH  10  11
ENDBRANCH   9  10
ENDBRANCH   1   6
BRANCH   1  16
ATOM     16  C   UNL     1      48.010   6.400  13.774  0.00  0.00    +0.000 C 
BRANCH  16  17
ATOM     17  C   UNL     1      48.379   6.088  15.198  0.00  0.00    +0.000 A 
ATOM     18  C   UNL     1      49.371   6.813  15.851  0.00  0.00    +0.000 A 
ATOM     19  N   UNL     1      49.813   6.539  17.101  0.00  0.00    +0.000 NA
ATOM     20  C   UNL     1      49.238   5.488  17.736  0.00  0.00    +0.000 A 
ATOM     21  C   UNL     1      48.236   4.701  17.187  0.00  0.00    +0.000 A 
ATOM     22  C   UNL     1      47.808   5.015  15.891  0.00  0.00    +0.000 A 
BRANCH  21  23
ATOM     23  C   UNL     1      47.622   3.544  17.882  0.00  0.00    +0.000 C 
ATOM     24  N   UNL     1      48.185   3.079  19.036  0.00  0.00    +0.000 N 
ATOM     25  O   UNL     1      46.619   3.000  17.432  0.00  0.00    +0.000 OA
ATOM     26  H   UNL     1      48.999   3.455  19.496  0.00  0.00    +0.000 HD
ATOM     27  H   UNL     1      47.726   2.289  19.475  0.00  0.00    +0.000 HD
ENDBRANCH  21  23
ENDBRANCH  16  17
ENDBRANCH   1  16
TORSDOF 6
ENDMDL
MODEL 7
REMARK VINA RESULT:    -6.821      1.936      7.325
REMARK INTER + INTRA:          -9.798
REMARK INTER:                  -9.018
REMARK INTRA:                  -0.780
REMARK UNBOUND:                -0.584
REMARK  Name = 
REMARK  7 active torsions:
REMARK  status: ('A' for Active; 'I' for Inactive)
REMARK    1  A    between atoms: C_1  and  C_2
REMARK    2  A    between atoms: C_4  and  N_5
REMARK    3  A    between atoms: N_5  and  C_6
REMARK    4  A    between atoms: C_6  and  C_7
REMARK    5  A    between atoms: C_11  and  C_12
REMARK    6  A    between atoms: C_18  and  O_19
REMARK    7  A    between atoms: O_19  and  C_20
REMARK                            x       y       z     vdW  Elec       q    Type
REMARK                         _______ _______ _______ _____ _____    ______ ____
ROOT
ATOM      1  N   UNL     1      43.963   5.360  11.807  0.00  0.00    +0.000 N 
ATOM      2  H   UNL     1      42.946   5.261  11.828  0.00  0.00    +0.000 HD
ENDROOT
BRANCH   1   6
ATOM      3  C   UNL     1      44.078   1.297   9.097  0.00  0.00    +0.000 C 
ATOM      4  C   UNL     1      44.580   2.698   9.276  0.00  0.00    +0.000 A 
ATOM      5  C   UNL     1      44.170   3.395  10.437  0.00  0.00    +0.000 A 
ATOM      6  C   UNL     1      44.466   4.749  10.649  0.00  0.00    +0.000 A 
ATOM      7  C   UNL     1      45.293   5.383   9.727  0.00  0.00    +0.000 A 
ATOM      8  C   UNL     1      45.731   4.706   8.589  0.00  0.00    +0.000 A 
ATOM      9  C   UNL     1      45.375   3.375   8.346  0.00  0.00    +0.000 A 
BRANCH   9  10
ATOM     10  O   UNL     1      45.770   2.940   7.108  0.00  0.00    +0.000 OA
BRANCH  10  11
ATOM     11  C   UNL     1      47.122   3.113   6.632  0.00  0.00    +0.000 C 
ATOM     12  C   UNL     1      47.472   2.815   5.163  0.00  0.00    +0.000 C 
ATOM     13  N   UNL     1      48.461   1.809   5.573  0.00  0.00    +0.000 NA
ATOM     14  C   UNL     1      48.051   1.926   6.975  0.00  0.00    +0.000 C 
ATOM     15  H   UNL     1      49.430   2.069   5.400  0.00  0.00    +0.000 HD
ENDBRANCH  10  11
ENDBRANCH   9  10
ENDBRANCH   1   6
BRANCH   1  16
ATOM     16  C   UNL     1      44.554   4.960  13.082  0.00  0.00    +0.000 C 
BRANCH  16  17
ATOM     17  C   UNL     1      45.842   5.702  13.307  0.00  0.00    +0.000 A 
ATOM     18  C   UNL     1      46.913   5.090  13.952  0.00  0.00    +0.000 A 
ATOM     19  N   UNL     1      48.072   5.718  14.262  0.00  0.00    +0.000 NA
ATOM     20  C   UNL     1      48.172   7.024  13.912  0.00  0.00    +0.000 A 
ATOM     21  C   UNL     1      47.173   7.733  13.260  0.00  0.00    +0.000 A 
ATOM     22  C   UNL     1      45.989   7.049  12.959  0.00  0.00    +0.000 A 
BRANCH  21  23
ATOM     23  C   UNL     1      47.284   9.166  12.893  0.00  0.00    +0.000 C 
ATOM     24  N   UNL     1      46.148   9.905  12.725  0.00  0.00    +0.000 N 
ATOM     25  O   UNL     1      48.381   9.692  12.738  0.00  0.00    +0.000 OA
ATOM     26  H   UNL     1      45.201   9.577  12.836  0.00  0.00    +0.000 HD
ATOM     27  H   UNL     1      46.277  10.879  12.479  0.00  0.00    +0.000 HD
ENDBRANCH  21  23
ENDBRANCH  16  17
ENDBRANCH   1  16
TORSDOF 6
ENDMDL
MODEL 8
REMARK VINA RESULT:    -6.437      2.722      3.790
REMARK INTER + INTRA:          -9.279
REMARK INTER:                  -8.553
REMARK INTRA:                  -0.726
REMARK UNBOUND:                -0.584
REMARK  Name = 
REMARK  7 active torsions:
REMARK  status: ('A' for Active; 'I' for Inactive)
REMARK    1  A    between atoms: C_1  and  C_2
REMARK    2  A    between atoms: C_4  and  N_5
REMARK    3  A    between atoms: N_5  and  C_6
REMARK    4  A    between atoms: C_6  and  C_7
REMARK    5  A    between atoms: C_11  and  C_12
REMARK    6  A    between atoms: C_18  and  O_19
REMARK    7  A    between atoms: O_19  and  C_20
REMARK                            x       y       z     vdW  Elec       q    Type
REMARK                         _______ _______ _______ _____ _____    ______ ____
ROOT
ATOM      1  N   UNL     1      44.825   6.638  10.956  0.00  0.00    +0.000 N 
ATOM      2  H   UNL     1      45.220   6.699  10.015  0.00  0.00    +0.000 HD
ENDROOT
BRANCH   1   6
ATOM      3  C   UNL     1      49.454   7.660  12.136  0.00  0.00    +0.000 C 
ATOM      4  C   UNL     1      48.210   6.901  12.487  0.00  0.00    +0.000 A 
ATOM      5  C   UNL     1      47.115   6.995  11.596  0.00  0.00    +0.000 A 
ATOM      6  C   UNL     1      45.860   6.439  11.882  0.00  0.00    +0.000 A 
ATOM      7  C   UNL     1      45.739   5.674  13.037  0.00  0.00    +0.000 A 
ATOM      8  C   UNL     1      46.814   5.545  13.916  0.00  0.00    +0.000 A 
ATOM      9  C   UNL     1      48.045   6.160  13.662  0.00  0.00    +0.000 A 
BRANCH   9  10
ATOM     10  O   UNL     1      48.918   6.048  14.712  0.00  0.00    +0.000 OA
BRANCH  10  11
ATOM     11  C   UNL     1      48.894   6.962  15.828  0.00  0.00    +0.000 C 
ATOM     12  C   UNL     1      50.008   8.011  15.996  0.00  0.00    +0.000 C 
ATOM     13  N   UNL     1      50.359   7.469  17.315  0.00  0.00    +0.000 NA
ATOM     14  C   UNL     1      49.434   6.346  17.139  0.00  0.00    +0.000 C 
ATOM     15  H   UNL     1      50.132   8.077  18.100  0.00  0.00    +0.000 HD
ENDBRANCH  10  11
ENDBRANCH   9  10
ENDBRANCH   1   6
BRANCH   1  16
ATOM     16  C   UNL     1      43.707   5.699  10.993  0.00  0.00    +0.000 C 
BRANCH  16  17
ATOM     17  C   UNL     1      44.072   4.436  10.263  0.00  0.00    +0.000 A 
ATOM     18  C   UNL     1      43.627   3.198  10.717  0.00  0.00    +0.000 A 
ATOM     19  N   UNL     1      43.980   2.014  10.162  0.00  0.00    +0.000 NA
ATOM     20  C   UNL     1      44.820   2.064   9.099  0.00  0.00    +0.000 A 
ATOM     21  C   UNL     1      45.321   3.239   8.557  0.00  0.00    +0.000 A 
ATOM     22  C   UNL     1      44.934   4.442   9.161  0.00  0.00    +0.000 A 
BRANCH  21  23
ATOM     23  C   UNL     1      46.252   3.285   7.404  0.00  0.00    +0.000 C 
ATOM     24  N   UNL     1      47.098   4.349   7.267  0.00  0.00    +0.000 N 
ATOM     25  O   UNL     1      46.269   2.383   6.573  0.00  0.00    +0.000 OA
ATOM     26  H   UNL     1      47.173   5.136   7.892  0.00  0.00    +0.000 HD
ATOM     27  H   UNL     1      47.717   4.332   6.465  0.00  0.00    +0.000 HD
ENDBRANCH  21  23
ENDBRANCH  16  17
ENDBRANCH   1  16
TORSDOF 6
ENDMDL
MODEL 9
REMARK VINA RESULT:    -6.392      3.568      5.517
REMARK INTER + INTRA:          -9.218
REMARK INTER:                  -8.806
REMARK INTRA:                  -0.412
REMARK UNBOUND:                -0.584
REMARK  Name = 
REMARK  7 active torsions:
REMARK  status: ('A' for Active; 'I' for Inactive)
REMARK    1  A    between atoms: C_1  and  C_2
REMARK    2  A    between atoms: C_4  and  N_5
REMARK    3  A    between atoms: N_5  and  C_6
REMARK    4  A    between atoms: C_6  and  C_7
REMARK    5  A    between atoms: C_11  and  C_12
REMARK    6  A    between atoms: C_18  and  O_19
REMARK    7  A    between atoms: O_19  and  C_20
REMARK                            x       y       z     vdW  Elec       q    Type
REMARK                         _______ _______ _______ _____ _____    ______ ____
ROOT
ATOM      1  N   UNL     1      47.360   6.749  12.403  0.00  0.00    +0.000 N 
ATOM      2  H   UNL     1      47.674   6.120  11.661  0.00  0.00    +0.000 HD
ENDROOT
BRANCH   1   6
ATOM      3  C   UNL     1      49.372   6.981  16.848  0.00  0.00    +0.000 C 
ATOM      4  C   UNL     1      48.546   6.180  15.887  0.00  0.00    +0.000 A 
ATOM      5  C   UNL     1      48.366   6.706  14.586  0.00  0.00    +0.000 A 
ATOM      6  C   UNL     1      47.510   6.115  13.645  0.00  0.00    +0.000 A 
ATOM      7  C   UNL     1      46.914   4.905  13.982  0.00  0.00    +0.000 A 
ATOM      8  C   UNL     1      47.100   4.354  15.250  0.00  0.00    +0.000 A 
ATOM      9  C   UNL     1      47.899   4.983  16.212  0.00  0.00    +0.000 A 
BRANCH   9  10
ATOM     10  O   UNL     1      47.831   4.373  17.436  0.00  0.00    +0.000 OA
BRANCH  10  11
ATOM     11  C   UNL     1      48.776   3.361  17.841  0.00  0.00    +0.000 C 
ATOM     12  C   UNL     1      50.285   3.581  17.636  0.00  0.00    +0.000 C 
ATOM     13  N   UNL     1      50.377   2.377  16.799  0.00  0.00    +0.000 NA
ATOM     14  C   UNL     1      48.921   2.211  16.817  0.00  0.00    +0.000 C 
ATOM     15  H   UNL     1      50.889   1.604  17.220  0.00  0.00    +0.000 HD
ENDBRANCH  10  11
ENDBRANCH   9  10
ENDBRANCH   1   6
BRANCH   1  16
ATOM     16  C   UNL     1      46.045   7.307  12.093  0.00  0.00    +0.000 C 
BRANCH  16  17
ATOM     17  C   UNL     1      45.213   6.287  11.366  0.00  0.00    +0.000 A 
ATOM     18  C   UNL     1      43.938   5.957  11.817  0.00  0.00    +0.000 A 
ATOM     19  N   UNL     1      43.164   4.993  11.265  0.00  0.00    +0.000 NA
ATOM     20  C   UNL     1      43.683   4.323  10.208  0.00  0.00    +0.000 A 
ATOM     21  C   UNL     1      44.938   4.571   9.669  0.00  0.00    +0.000 A 
ATOM     22  C   UNL     1      45.709   5.574  10.270  0.00  0.00    +0.000 A 
BRANCH  21  23
ATOM     23  C   UNL     1      45.506   3.823   8.522  0.00  0.00    +0.000 C 
ATOM     24  N   UNL     1      45.539   2.458   8.562  0.00  0.00    +0.000 N 
ATOM     25  O   UNL     1      45.946   4.414   7.542  0.00  0.00    +0.000 OA
ATOM     26  H   UNL     1      45.198   1.874   9.310  0.00  0.00    +0.000 HD
ATOM     27  H   UNL     1      45.933   1.993   7.753  0.00  0.00    +0.000 HD
ENDBRANCH  21  23
ENDBRANCH  16  17
ENDBRANCH   1  16
TORSDOF 6
ENDMDL
