MODEL 1
REMARK VINA RESULT:    -8.257      0.000      0.000
REMARK INTER + INTRA:         -11.977
REMARK INTER:                 -11.154
REMARK INTRA:                  -0.824
REMARK UNBOUND:                -0.824
REMARK  Name = 
REMARK  6 active torsions:
REMARK  status: ('A' for Active; 'I' for Inactive)
REMARK    1  A    between atoms: C_2  and  C_4
REMARK    2  A    between atoms: C_7  and  C_8
REMARK    3  A    between atoms: C_8  and  C_9
REMARK    4  A    between atoms: C_9  and  O_10
REMARK    5  A    between atoms: O_10  and  C_11
REMARK    6  A    between atoms: C_16  and  C_17
REMARK                            x       y       z     vdW  Elec       q    Type
REMARK                         _______ _______ _______ _____ _____    ______ ____
ROOT
ATOM      1  O   UNL     1      43.515   5.173  12.508  0.00  0.00    +0.000 OA
ENDROOT
BRANCH   1   2
ATOM      2  C   UNL     1      44.802   5.450  12.903  0.00  0.00    +0.000 A 
ATOM      3  C   UNL     1      45.676   4.514  13.464  0.00  0.00    +0.000 A 
ATOM      4  C   UNL     1      46.977   4.877  13.813  0.00  0.00    +0.000 A 
ATOM      5  C   UNL     1      47.399   6.177  13.600  0.00  0.00    +0.000 A 
ATOM      6  F   UNL     1      48.658   6.490  13.934  0.00  0.00    +0.000 F 
ATOM      7  C   UNL     1      46.550   7.146  13.053  0.00  0.00    +0.000 A 
ATOM      8  C   UNL     1      45.241   6.762  12.703  0.00  0.00    +0.000 A 
BRANCH   7   9
ATOM      9  C   UNL     1      47.037   8.568  12.840  0.00  0.00    +0.000 C 
ATOM     10  C   UNL     1      45.914   9.486  12.333  0.00  0.00    +0.000 C 
ATOM     11  C   UNL     1      46.455  10.866  11.987  0.00  0.00    +0.000 C 
ATOM     12  O   UNL     1      47.533  10.771  11.058  0.00  0.00    +0.000 OA
ATOM     13  C   UNL     1      48.642  10.049  11.590  0.00  0.00    +0.000 C 
ATOM     14  C   UNL     1      48.248   8.612  11.898  0.00  0.00    +0.000 C 
ENDBRANCH   7   9
ENDBRANCH   1   2
BRANCH   1  15
ATOM     15  C   UNL     1      43.431   4.201  11.460  0.00  0.00    +0.000 C 
BRANCH  15  16
ATOM     16  C   UNL     1      43.735   4.798  10.092  0.00  0.00    +0.000 C 
BRANCH  16  20
ATOM     17  C   UNL     1      46.417   2.457   7.740  0.00  0.00    +0.000 A 
ATOM     18  C   UNL     1      45.611   1.810   8.677  0.00  0.00    +0.000 A 
ATOM     19  C   UNL     1      44.723   2.558   9.447  0.00  0.00    +0.000 A 
ATOM     20  C   UNL     1      44.650   3.941   9.258  0.00  0.00    +0.000 A 
ATOM     21  N   UNL     1      45.414   4.581   8.340  0.00  0.00    +0.000 NA
ATOM     22  C   UNL     1      46.284   3.833   7.613  0.00  0.00    +0.000 A 
BRANCH  17  24
ATOM     23  N   UNL     1      48.539   2.460   6.554  0.00  0.00    +0.000 N 
ATOM     24  C   UNL     1      47.432   1.747   6.935  0.00  0.00    +0.000 C 
ATOM     25  O   UNL     1      47.301   0.575   6.636  0.00  0.00    +0.000 OA
ATOM     26  H   UNL     1      49.262   1.942   6.067  0.00  0.00    +0.000 HD
ATOM     27  H   UNL     1      48.788   3.348   6.958  0.00  0.00    +0.000 HD
ENDBRANCH  17  24
ENDBRANCH  16  20
ENDBRANCH  15  16
ENDBRANCH   1  15
TORSDOF 6
ENDMDL
MODEL 2
REMARK VINA RESULT:    -7.862      2.115      3.632
REMARK INTER + INTRA:         -11.443
REMARK INTER:                 -10.551
REMARK INTRA:                  -0.893
REMARK UNBOUND:                -0.824
REMARK  Name = 
REMARK  6 active torsions:
REMARK  status: ('A' for Active; 'I' for Inactive)
REMARK    1  A    between atoms: C_2  and  C_4
REMARK    2  A    between atoms: C_7  and  C_8
REMARK    3  A    between atoms: C_8  and  C_9
REMARK    4  A    between atoms: C_9  and  O_10
REMARK    5  A    between atoms: O_10  and  C_11
REMARK    6  A    between atoms: C_16  and  C_17
REMARK                            x       y       z     vdW  Elec       q    Type
REMARK                         _______ _______ _______ _____ _____    ______ ____
ROOT
ATOM      1  O   UNL     1      43.985   5.584  12.256  0.00  0.00    +0.000 OA
ENDROOT
BRANCH   1   2
ATOM      2  C   UNL     1      45.321   5.873  12.395  0.00  0.00    +0.000 A 
ATOM      3  C   UNL     1      46.067   6.624  11.480  0.00  0.00    +0.000 A 
ATOM      4  C   UNL     1      47.416   6.891  11.715  0.00  0.00    +0.000 A 
ATOM      5  C   UNL     1      48.014   6.406  12.864  0.00  0.00    +0.000 A 
ATOM      6  F   UNL     1      49.308   6.692  13.066  0.00  0.00    +0.000 F 
ATOM      7  C   UNL     1      47.305   5.641  13.797  0.00  0.00    +0.000 A 
ATOM      8  C   UNL     1      45.943   5.383  13.547  0.00  0.00    +0.000 A 
BRANCH   7   9
ATOM      9  C   UNL     1      47.990   5.114  15.044  0.00  0.00    +0.000 C 
ATOM     10  C   UNL     1      47.076   4.169  15.841  0.00  0.00    +0.000 C 
ATOM     11  C   UNL     1      47.725   3.770  17.158  0.00  0.00    +0.000 C 
ATOM     12  O   UNL     1      48.098   4.922  17.912  0.00  0.00    +0.000 OA
ATOM     13  C   UNL     1      49.068   5.719  17.236  0.00  0.00    +0.000 C 
ATOM     14  C   UNL     1      48.503   6.257  15.930  0.00  0.00    +0.000 C 
ENDBRANCH   7   9
ENDBRANCH   1   2
BRANCH   1  15
ATOM     15  C   UNL     1      43.600   5.271  10.912  0.00  0.00    +0.000 C 
BRANCH  15  16
ATOM     16  C   UNL     1      43.597   3.771  10.646  0.00  0.00    +0.000 C 
BRANCH  16  20
ATOM     17  C   UNL     1      46.413   2.690   7.627  0.00  0.00    +0.000 A 
ATOM     18  C   UNL     1      45.846   1.679   8.403  0.00  0.00    +0.000 A 
ATOM     19  C   UNL     1      44.918   2.014   9.388  0.00  0.00    +0.000 A 
ATOM     20  C   UNL     1      44.566   3.355   9.571  0.00  0.00    +0.000 A 
ATOM     21  N   UNL     1      45.096   4.345   8.812  0.00  0.00    +0.000 NA
ATOM     22  C   UNL     1      46.011   3.996   7.871  0.00  0.00    +0.000 A 
BRANCH  17  24
ATOM     23  N   UNL     1      47.387   3.143   5.447  0.00  0.00    +0.000 N 
ATOM     24  C   UNL     1      47.454   2.427   6.613  0.00  0.00    +0.000 C 
ATOM     25  O   UNL     1      48.342   1.619   6.809  0.00  0.00    +0.000 OA
ATOM     26  H   UNL     1      48.150   3.009   4.791  0.00  0.00    +0.000 HD
ATOM     27  H   UNL     1      46.812   3.963   5.337  0.00  0.00    +0.000 HD
ENDBRANCH  17  24
ENDBRANCH  16  20
ENDBRANCH  15  16
ENDBRANCH   1  15
TORSDOF 6
ENDMDL
MODEL 3
REMARK VINA RESULT:    -7.858      3.589      7.572
REMARK INTER + INTRA:         -11.438
REMARK INTER:                 -10.568
REMARK INTRA:                  -0.870
REMARK UNBOUND:                -0.824
REMARK  Name = 
REMARK  6 active torsions:
REMARK  status: ('A' for Active; 'I' for Inactive)
REMARK    1  A    between atoms: C_2  and  C_4
REMARK    2  A    between atoms: C_7  and  C_8
REMARK    3  A    between atoms: C_8  and  C_9
REMARK    4  A    between atoms: C_9  and  O_10
REMARK    5  A    between atoms: O_10  and  C_11
REMARK    6  A    between atoms: C_16  and  C_17
REMARK                            x       y       z     vdW  Elec       q    Type
REMARK                         _______ _______ _______ _____ _____    ______ ____
ROOT
ATOM      1  O   UNL     1      45.424   6.597  10.672  0.00  0.00    +0.000 OA
ENDROOT
BRANCH   1   2
ATOM      2  C   UNL     1      45.031   5.298  10.459  0.00  0.00    +0.000 A 
ATOM      3  C   UNL     1      44.153   4.592  11.287  0.00  0.00    +0.000 A 
ATOM      4  C   UNL     1      43.787   3.281  10.980  0.00  0.00    +0.000 A 
ATOM      5  C   UNL     1      44.302   2.681   9.846  0.00  0.00    +0.000 A 
ATOM      6  F   UNL     1      43.921   1.426   9.573  0.00  0.00    +0.000 F 
ATOM      7  C   UNL     1      45.194   3.350   8.999  0.00  0.00    +0.000 A 
ATOM      8  C   UNL     1      45.550   4.674   9.321  0.00  0.00    +0.000 A 
BRANCH   7   9
ATOM      9  C   UNL     1      45.751   2.663   7.766  0.00  0.00    +0.000 C 
ATOM     10  C   UNL     1      46.436   1.332   8.115  0.00  0.00    +0.000 C 
ATOM     11  C   UNL     1      47.114   0.733   6.892  0.00  0.00    +0.000 C 
ATOM     12  O   UNL     1      48.019   1.666   6.304  0.00  0.00    +0.000 OA
ATOM     13  C   UNL     1      47.356   2.839   5.836  0.00  0.00    +0.000 C 
ATOM     14  C   UNL     1      46.705   3.583   6.991  0.00  0.00    +0.000 C 
ENDBRANCH   7   9
ENDBRANCH   1   2
BRANCH   1  15
ATOM     15  C   UNL     1      45.776   6.878  12.032  0.00  0.00    +0.000 C 
BRANCH  15  16
ATOM     16  C   UNL     1      47.220   6.503  12.344  0.00  0.00    +0.000 C 
BRANCH  16  20
ATOM     17  C   UNL     1      47.638   4.393  16.029  0.00  0.00    +0.000 A 
ATOM     18  C   UNL     1      46.828   3.845  15.034  0.00  0.00    +0.000 A 
ATOM     19  C   UNL     1      46.688   4.516  13.821  0.00  0.00    +0.000 A 
ATOM     20  C   UNL     1      47.369   5.721  13.622  0.00  0.00    +0.000 A 
ATOM     21  N   UNL     1      48.172   6.256  14.573  0.00  0.00    +0.000 NA
ATOM     22  C   UNL     1      48.280   5.592  15.753  0.00  0.00    +0.000 A 
BRANCH  17  24
ATOM     23  N   UNL     1      46.971   2.716  17.657  0.00  0.00    +0.000 N 
ATOM     24  C   UNL     1      47.783   3.781  17.365  0.00  0.00    +0.000 C 
ATOM     25  O   UNL     1      48.597   4.194  18.170  0.00  0.00    +0.000 OA
ATOM     26  H   UNL     1      47.132   2.257  18.548  0.00  0.00    +0.000 HD
ATOM     27  H   UNL     1      46.451   2.212  16.957  0.00  0.00    +0.000 HD
ENDBRANCH  17  24
ENDBRANCH  16  20
ENDBRANCH  15  16
ENDBRANCH   1  15
TORSDOF 6
ENDMDL
MODEL 4
REMARK VINA RESULT:    -7.591      1.816      2.409
REMARK INTER + INTRA:         -11.077
REMARK INTER:                 -10.045
REMARK INTRA:                  -1.032
REMARK UNBOUND:                -0.824
REMARK  Name = 
REMARK  6 active torsions:
REMARK  status: ('A' for Active; 'I' for Inactive)
REMARK    1  A    between atoms: C_2  and  C_4
REMARK    2  A    between atoms: C_7  and  C_8
REMARK    3  A    between atoms: C_8  and  C_9
REMARK    4  A    between atoms: C_9  and  O_10
REMARK    5  A    between atoms: O_10  and  C_11
REMARK    6  A    between atoms: C_16  and  C_17
REMARK                            x       y       z     vdW  Elec       q    Type
REMARK                         _______ _______ _______ _____ _____    ______ ____
ROOT
ATOM      1  O   UNL     1      44.106   4.595  12.777  0.00  0.00    +0.000 OA
ENDROOT
BRANCH   1   2
ATOM      2  C   UNL     1      45.081   5.538  12.556  0.00  0.00    +0.000 A 
ATOM      3  C   UNL     1      46.447   5.330  12.772  0.00  0.00    +0.000 A 
ATOM      4  C   UNL     1      47.371   6.338  12.496  0.00  0.00    +0.000 A 
ATOM      5  C   UNL     1      46.925   7.551  12.005  0.00  0.00    +0.000 A 
ATOM      6  F   UNL     1      47.840   8.493  11.738  0.00  0.00    +0.000 F 
ATOM      7  C   UNL     1      45.565   7.803  11.787  0.00  0.00    +0.000 A 
ATOM      8  C   UNL     1      44.646   6.774  12.069  0.00  0.00    +0.000 A 
BRANCH   7   9
ATOM      9  C   UNL     1      45.104   9.148  11.258  0.00  0.00    +0.000 C 
ATOM     10  C   UNL     1      45.550  10.303  12.168  0.00  0.00    +0.000 C 
ATOM     11  C   UNL     1      44.955  11.624  11.700  0.00  0.00    +0.000 C 
ATOM     12  O   UNL     1      43.535  11.534  11.601  0.00  0.00    +0.000 OA
ATOM     13  C   UNL     1      43.120  10.567  10.638  0.00  0.00    +0.000 C 
ATOM     14  C   UNL     1      43.584   9.176  11.042  0.00  0.00    +0.000 C 
ENDBRANCH   7   9
ENDBRANCH   1   2
BRANCH   1  15
ATOM     15  C   UNL     1      44.403   3.315  12.206  0.00  0.00    +0.000 C 
BRANCH  15  16
ATOM     16  C   UNL     1      43.718   3.111  10.860  0.00  0.00    +0.000 C 
BRANCH  16  20
ATOM     17  C   UNL     1      46.379   2.987   7.526  0.00  0.00    +0.000 A 
ATOM     18  C   UNL     1      45.932   4.229   7.978  0.00  0.00    +0.000 A 
ATOM     19  C   UNL     1      45.070   4.288   9.071  0.00  0.00    +0.000 A 
ATOM     20  C   UNL     1      44.678   3.102   9.700  0.00  0.00    +0.000 A 
ATOM     21  N   UNL     1      45.118   1.891   9.283  0.00  0.00    +0.000 NA
ATOM     22  C   UNL     1      45.943   1.857   8.204  0.00  0.00    +0.000 A 
BRANCH  17  24
ATOM     23  N   UNL     1      48.555   2.533   6.545  0.00  0.00    +0.000 N 
ATOM     24  C   UNL     1      47.235   2.835   6.333  0.00  0.00    +0.000 C 
ATOM     25  O   UNL     1      46.787   2.957   5.208  0.00  0.00    +0.000 OA
ATOM     26  H   UNL     1      49.115   2.357   5.717  0.00  0.00    +0.000 HD
ATOM     27  H   UNL     1      48.911   2.212   7.430  0.00  0.00    +0.000 HD
ENDBRANCH  17  24
ENDBRANCH  16  20
ENDBRANCH  15  16
ENDBRANCH   1  15
TORSDOF 6
ENDMDL
MODEL 5
REMARK VINA RESULT:    -7.474      3.647      7.467
REMARK INTER + INTRA:         -10.919
REMARK INTER:                  -9.955
REMARK INTRA:                  -0.964
REMARK UNBOUND:                -0.824
REMARK  Name = 
REMARK  6 active torsions:
REMARK  status: ('A' for Active; 'I' for Inactive)
REMARK    1  A    between atoms: C_2  and  C_4
REMARK    2  A    between atoms: C_7  and  C_8
REMARK    3  A    between atoms: C_8  and  C_9
REMARK    4  A    between atoms: C_9  and  O_10
REMARK    5  A    between atoms: O_10  and  C_11
REMARK    6  A    between atoms: C_16  and  C_17
REMARK                            x       y       z     vdW  Elec       q    Type
REMARK                         _______ _______ _______ _____ _____    ______ ____
ROOT
ATOM      1  O   UNL     1      47.262   7.741  11.812  0.00  0.00    +0.000 OA
ENDROOT
BRANCH   1   2
ATOM      2  C   UNL     1      46.144   6.942  11.784  0.00  0.00    +0.000 A 
ATOM      3  C   UNL     1      45.097   7.013  12.708  0.00  0.00    +0.000 A 
ATOM      4  C   UNL     1      43.986   6.178  12.588  0.00  0.00    +0.000 A 
ATOM      5  C   UNL     1      43.927   5.275  11.543  0.00  0.00    +0.000 A 
ATOM      6  F   UNL     1      42.839   4.497  11.448  0.00  0.00    +0.000 F 
ATOM      7  C   UNL     1      44.959   5.165  10.605  0.00  0.00    +0.000 A 
ATOM      8  C   UNL     1      46.072   6.016  10.739  0.00  0.00    +0.000 A 
BRANCH   7   9
ATOM      9  C   UNL     1      44.871   4.156   9.474  0.00  0.00    +0.000 C 
ATOM     10  C   UNL     1      45.062   2.717   9.977  0.00  0.00    +0.000 C 
ATOM     11  C   UNL     1      45.117   1.737   8.813  0.00  0.00    +0.000 C 
ATOM     12  O   UNL     1      46.123   2.118   7.876  0.00  0.00    +0.000 OA
ATOM     13  C   UNL     1      45.861   3.392   7.290  0.00  0.00    +0.000 C 
ATOM     14  C   UNL     1      45.867   4.481   8.352  0.00  0.00    +0.000 C 
ENDBRANCH   7   9
ENDBRANCH   1   2
BRANCH   1  15
ATOM     15  C   UNL     1      47.620   8.184  13.126  0.00  0.00    +0.000 C 
BRANCH  15  16
ATOM     16  C   UNL     1      48.806   7.412  13.693  0.00  0.00    +0.000 C 
BRANCH  16  20
ATOM     17  C   UNL     1      47.744   4.619  16.740  0.00  0.00    +0.000 A 
ATOM     18  C   UNL     1      48.500   5.737  17.093  0.00  0.00    +0.000 A 
ATOM     19  C   UNL     1      48.848   6.664  16.112  0.00  0.00    +0.000 A 
ATOM     20  C   UNL     1      48.424   6.459  14.795  0.00  0.00    +0.000 A 
ATOM     21  N   UNL     1      47.674   5.388  14.442  0.00  0.00    +0.000 NA
ATOM     22  C   UNL     1      47.363   4.489  15.412  0.00  0.00    +0.000 A 
BRANCH  17  24
ATOM     23  N   UNL     1      48.147   3.477  18.848  0.00  0.00    +0.000 N 
ATOM     24  C   UNL     1      47.395   3.557  17.705  0.00  0.00    +0.000 C 
ATOM     25  O   UNL     1      46.470   2.792  17.502  0.00  0.00    +0.000 OA
ATOM     26  H   UNL     1      47.850   2.793  19.536  0.00  0.00    +0.000 HD
ATOM     27  H   UNL     1      48.764   4.213  19.153  0.00  0.00    +0.000 HD
ENDBRANCH  17  24
ENDBRANCH  16  20
ENDBRANCH  15  16
ENDBRANCH   1  15
TORSDOF 6
ENDMDL
MODEL 6
REMARK VINA RESULT:    -7.285      2.168      2.596
REMARK INTER + INTRA:         -10.663
REMARK INTER:                 -10.205
REMARK INTRA:                  -0.458
REMARK UNBOUND:                -0.824
REMARK  Name = 
REMARK  6 active torsions:
REMARK  status: ('A' for Active; 'I' for Inactive)
REMARK    1  A    between atoms: C_2  and  C_4
REMARK    2  A    between atoms: C_7  and  C_8
REMARK    3  A    between atoms: C_8  and  C_9
REMARK    4  A    between atoms: C_9  and  O_10
REMARK    5  A    between atoms: O_10  and  C_11
REMARK    6  A    between atoms: C_16  and  C_17
REMARK                            x       y       z     vdW  Elec       q    Type
REMARK                         _______ _______ _______ _____ _____    ______ ____
ROOT
ATOM      1  O   UNL     1      45.759   5.428  11.473  0.00  0.00    +0.000 OA
ENDROOT
BRANCH   1   2
ATOM      2  C   UNL     1      46.420   5.448  12.677  0.00  0.00    +0.000 A 
ATOM      3  C   UNL     1      46.302   4.461  13.661  0.00  0.00    +0.000 A 
ATOM      4  C   UNL     1      47.032   4.551  14.847  0.00  0.00    +0.000 A 
ATOM      5  C   UNL     1      47.877   5.627  15.044  0.00  0.00    +0.000 A 
ATOM      6  F   UNL     1      48.574   5.676  16.187  0.00  0.00    +0.000 F 
ATOM      7  C   UNL     1      48.013   6.641  14.088  0.00  0.00    +0.000 A 
ATOM      8  C   UNL     1      47.272   6.535  12.896  0.00  0.00    +0.000 A 
BRANCH   7   9
ATOM      9  C   UNL     1      48.940   7.816  14.337  0.00  0.00    +0.000 C 
ATOM     10  C   UNL     1      50.319   7.359  14.840  0.00  0.00    +0.000 C 
ATOM     11  C   UNL     1      51.181   8.554  15.222  0.00  0.00    +0.000 C 
ATOM     12  O   UNL     1      50.511   9.383  16.169  0.00  0.00    +0.000 OA
ATOM     13  C   UNL     1      49.305   9.936  15.644  0.00  0.00    +0.000 C 
ATOM     14  C   UNL     1      48.315   8.833  15.302  0.00  0.00    +0.000 C 
ENDBRANCH   7   9
ENDBRANCH   1   2
BRANCH   1  15
ATOM     15  C   UNL     1      44.398   4.990  11.570  0.00  0.00    +0.000 C 
BRANCH  15  16
ATOM     16  C   UNL     1      43.786   4.701  10.205  0.00  0.00    +0.000 C 
BRANCH  16  20
ATOM     17  C   UNL     1      46.401   2.455   7.688  0.00  0.00    +0.000 A 
ATOM     18  C   UNL     1      45.668   1.778   8.663  0.00  0.00    +0.000 A 
ATOM     19  C   UNL     1      44.803   2.495   9.487  0.00  0.00    +0.000 A 
ATOM     20  C   UNL     1      44.679   3.877   9.314  0.00  0.00    +0.000 A 
ATOM     21  N   UNL     1      45.371   4.545   8.360  0.00  0.00    +0.000 NA
ATOM     22  C   UNL     1      46.221   3.828   7.581  0.00  0.00    +0.000 A 
BRANCH  17  24
ATOM     23  N   UNL     1      48.477   2.515   6.425  0.00  0.00    +0.000 N 
ATOM     24  C   UNL     1      47.390   1.781   6.823  0.00  0.00    +0.000 C 
ATOM     25  O   UNL     1      47.255   0.619   6.489  0.00  0.00    +0.000 OA
ATOM     26  H   UNL     1      49.185   2.020   5.895  0.00  0.00    +0.000 HD
ATOM     27  H   UNL     1      48.735   3.391   6.851  0.00  0.00    +0.000 HD
ENDBRANCH  17  24
ENDBRANCH  16  20
ENDBRANCH  15  16
ENDBRANCH   1  15
TORSDOF 6
ENDMDL
MODEL 7
REMARK VINA RESULT:    -7.262      1.835      2.639
REMARK INTER + INTRA:         -10.633
REMARK INTER:                 -10.089
REMARK INTRA:                  -0.545
REMARK UNBOUND:                -0.824
REMARK  Name = 
REMARK  6 active torsions:
REMARK  status: ('A' for Active; 'I' for Inactive)
REMARK    1  A    between atoms: C_2  and  C_4
REMARK    2  A    between atoms: C_7  and  C_8
REMARK    3  A    between atoms: C_8  and  C_9
REMARK    4  A    between atoms: C_9  and  O_10
REMARK    5  A    between atoms: O_10  and  C_11
REMARK    6  A    between atoms: C_16  and  C_17
REMARK                            x       y       z     vdW  Elec       q    Type
REMARK                         _______ _______ _______ _____ _____    ______ ____
ROOT
ATOM      1  O   UNL     1      45.882   5.021  11.637  0.00  0.00    +0.000 OA
ENDROOT
BRANCH   1   2
ATOM      2  C   UNL     1      46.057   6.361  11.883  0.00  0.00    +0.000 A 
ATOM      3  C   UNL     1      45.021   7.254  12.173  0.00  0.00    +0.000 A 
ATOM      4  C   UNL     1      45.294   8.597  12.435  0.00  0.00    +0.000 A 
ATOM      5  C   UNL     1      46.603   9.041  12.405  0.00  0.00    +0.000 A 
ATOM      6  F   UNL     1      46.832  10.334  12.675  0.00  0.00    +0.000 F 
ATOM      7  C   UNL     1      47.666   8.181  12.106  0.00  0.00    +0.000 A 
ATOM      8  C   UNL     1      47.374   6.829  11.847  0.00  0.00    +0.000 A 
BRANCH   7   9
ATOM      9  C   UNL     1      49.092   8.700  12.070  0.00  0.00    +0.000 C 
ATOM     10  C   UNL     1      49.214   9.977  11.224  0.00  0.00    +0.000 C 
ATOM     11  C   UNL     1      50.670  10.396  11.080  0.00  0.00    +0.000 C 
ATOM     12  O   UNL     1      51.457   9.328  10.557  0.00  0.00    +0.000 OA
ATOM     13  C   UNL     1      51.471   8.194  11.423  0.00  0.00    +0.000 C 
ATOM     14  C   UNL     1      50.070   7.623  11.579  0.00  0.00    +0.000 C 
ENDBRANCH   7   9
ENDBRANCH   1   2
BRANCH   1  15
ATOM     15  C   UNL     1      44.521   4.588  11.746  0.00  0.00    +0.000 C 
BRANCH  15  16
ATOM     16  C   UNL     1      43.907   4.262  10.390  0.00  0.00    +0.000 C 
BRANCH  16  20
ATOM     17  C   UNL     1      46.679   2.737   7.527  0.00  0.00    +0.000 A 
ATOM     18  C   UNL     1      46.464   4.114   7.580  0.00  0.00    +0.000 A 
ATOM     19  C   UNL     1      45.569   4.630   8.515  0.00  0.00    +0.000 A 
ATOM     20  C   UNL     1      44.911   3.758   9.388  0.00  0.00    +0.000 A 
ATOM     21  N   UNL     1      45.123   2.420   9.359  0.00  0.00    +0.000 NA
ATOM     22  C   UNL     1      45.986   1.939   8.427  0.00  0.00    +0.000 A 
BRANCH  17  24
ATOM     23  N   UNL     1      47.927   2.870   5.445  0.00  0.00    +0.000 N 
ATOM     24  C   UNL     1      47.555   2.105   6.520  0.00  0.00    +0.000 C 
ATOM     25  O   UNL     1      47.944   0.959   6.644  0.00  0.00    +0.000 OA
ATOM     26  H   UNL     1      48.589   2.451   4.801  0.00  0.00    +0.000 HD
ATOM     27  H   UNL     1      47.812   3.870   5.416  0.00  0.00    +0.000 HD
ENDBRANCH  17  24
ENDBRANCH  16  20
ENDBRANCH  15  16
ENDBRANCH   1  15
TORSDOF 6
ENDMDL
MODEL 8
REMARK VINA RESULT:    -7.048      5.211      7.993
REMARK INTER + INTRA:         -10.344
REMARK INTER:                  -9.577
REMARK INTRA:                  -0.767
REMARK UNBOUND:                -0.824
REMARK  Name = 
REMARK  6 active torsions:
REMARK  status: ('A' for Active; 'I' for Inactive)
REMARK    1  A    between atoms: C_2  and  C_4
REMARK    2  A    between atoms: C_7  and  C_8
REMARK    3  A    between atoms: C_8  and  C_9
REMARK    4  A    between atoms: C_9  and  O_10
REMARK    5  A    between atoms: O_10  and  C_11
REMARK    6  A    between atoms: C_16  and  C_17
REMARK                            x       y       z     vdW  Elec       q    Type
REMARK                         _______ _______ _______ _____ _____    ______ ____
ROOT
ATOM      1  O   UNL     1      48.497   5.810  14.538  0.00  0.00    +0.000 OA
ENDROOT
BRANCH   1   2
ATOM      2  C   UNL     1      47.534   6.430  13.779  0.00  0.00    +0.000 A 
ATOM      3  C   UNL     1      47.405   7.816  13.640  0.00  0.00    +0.000 A 
ATOM      4  C   UNL     1      46.411   8.359  12.826  0.00  0.00    +0.000 A 
ATOM      5  C   UNL     1      45.547   7.513  12.154  0.00  0.00    +0.000 A 
ATOM      6  F   UNL     1      44.611   8.067  11.371  0.00  0.00    +0.000 F 
ATOM      7  C   UNL     1      45.635   6.121  12.277  0.00  0.00    +0.000 A 
ATOM      8  C   UNL     1      46.646   5.589  13.100  0.00  0.00    +0.000 A 
BRANCH   7   9
ATOM      9  C   UNL     1      44.666   5.218  11.536  0.00  0.00    +0.000 C 
ATOM     10  C   UNL     1      44.368   3.932  12.324  0.00  0.00    +0.000 C 
ATOM     11  C   UNL     1      43.514   2.978  11.501  0.00  0.00    +0.000 C 
ATOM     12  O   UNL     1      44.125   2.707  10.241  0.00  0.00    +0.000 OA
ATOM     13  C   UNL     1      44.259   3.882   9.443  0.00  0.00    +0.000 C 
ATOM     14  C   UNL     1      45.171   4.891  10.124  0.00  0.00    +0.000 C 
ENDBRANCH   7   9
ENDBRANCH   1   2
BRANCH   1  15
ATOM     15  C   UNL     1      48.858   6.539  15.716  0.00  0.00    +0.000 C 
BRANCH  15  16
ATOM     16  C   UNL     1      48.579   5.752  16.991  0.00  0.00    +0.000 C 
BRANCH  16  20
ATOM     17  C   UNL     1      51.317   2.529  17.558  0.00  0.00    +0.000 A 
ATOM     18  C   UNL     1      51.750   3.828  17.827  0.00  0.00    +0.000 A 
ATOM     19  C   UNL     1      50.866   4.891  17.656  0.00  0.00    +0.000 A 
ATOM     20  C   UNL     1      49.560   4.634  17.227  0.00  0.00    +0.000 A 
ATOM     21  N   UNL     1      49.121   3.377  16.979  0.00  0.00    +0.000 NA
ATOM     22  C   UNL     1      50.006   2.358  17.136  0.00  0.00    +0.000 A 
BRANCH  17  24
ATOM     23  N   UNL     1      51.673   0.194  18.131  0.00  0.00    +0.000 N 
ATOM     24  C   UNL     1      52.212   1.357  17.647  0.00  0.00    +0.000 C 
ATOM     25  O   UNL     1      53.374   1.416  17.293  0.00  0.00    +0.000 OA
ATOM     26  H   UNL     1      52.275  -0.622  18.116  0.00  0.00    +0.000 HD
ATOM     27  H   UNL     1      50.681   0.044  18.224  0.00  0.00    +0.000 HD
ENDBRANCH  17  24
ENDBRANCH  16  20
ENDBRANCH  15  16
ENDBRANCH   1  15
TORSDOF 6
ENDMDL
MODEL 9
REMARK VINA RESULT:    -6.658      3.906      6.508
REMARK INTER + INTRA:          -9.817
REMARK INTER:                  -8.589
REMARK INTRA:                  -1.227
REMARK UNBOUND:                -0.824
REMARK  Name = 
REMARK  6 active torsions:
REMARK  status: ('A' for Active; 'I' for Inactive)
REMARK    1  A    between atoms: C_2  and  C_4
REMARK    2  A    between atoms: C_7  and  C_8
REMARK    3  A    between atoms: C_8  and  C_9
REMARK    4  A    between atoms: C_9  and  O_10
REMARK    5  A    between atoms: O_10  and  C_11
REMARK    6  A    between atoms: C_16  and  C_17
REMARK                            x       y       z     vdW  Elec       q    Type
REMARK                         _______ _______ _______ _____ _____    ______ ____
ROOT
ATOM      1  O   UNL     1      48.936   8.359  14.656  0.00  0.00    +0.000 OA
ENDROOT
BRANCH   1   2
ATOM      2  C   UNL     1      48.790   7.825  15.913  0.00  0.00    +0.000 A 
ATOM      3  C   UNL     1      48.467   8.564  17.055  0.00  0.00    +0.000 A 
ATOM      4  C   UNL     1      48.314   7.933  18.290  0.00  0.00    +0.000 A 
ATOM      5  C   UNL     1      48.484   6.563  18.377  0.00  0.00    +0.000 A 
ATOM      6  F   UNL     1      48.316   5.987  19.575  0.00  0.00    +0.000 F 
ATOM      7  C   UNL     1      48.819   5.790  17.260  0.00  0.00    +0.000 A 
ATOM      8  C   UNL     1      48.968   6.442  16.021  0.00  0.00    +0.000 A 
BRANCH   7   9
ATOM      9  C   UNL     1      49.010   4.290  17.388  0.00  0.00    +0.000 C 
ATOM     10  C   UNL     1      50.493   3.895  17.318  0.00  0.00    +0.000 C 
ATOM     11  C   UNL     1      50.652   2.381  17.300  0.00  0.00    +0.000 C 
ATOM     12  O   UNL     1      49.890   1.803  16.242  0.00  0.00    +0.000 OA
ATOM     13  C   UNL     1      48.491   2.037  16.393  0.00  0.00    +0.000 C 
ATOM     14  C   UNL     1      48.189   3.527  16.339  0.00  0.00    +0.000 C 
ENDBRANCH   7   9
ENDBRANCH   1   2
BRANCH   1  15
ATOM     15  C   UNL     1      47.756   8.266  13.849  0.00  0.00    +0.000 C 
BRANCH  15  16
ATOM     16  C   UNL     1      47.980   7.435  12.592  0.00  0.00    +0.000 C 
BRANCH  16  20
ATOM     17  C   UNL     1      45.084   4.371  11.931  0.00  0.00    +0.000 A 
ATOM     18  C   UNL     1      45.876   4.305  13.078  0.00  0.00    +0.000 A 
ATOM     19  C   UNL     1      46.820   5.302  13.314  0.00  0.00    +0.000 A 
ATOM     20  C   UNL     1      46.949   6.354  12.401  0.00  0.00    +0.000 A 
ATOM     21  N   UNL     1      46.174   6.440  11.293  0.00  0.00    +0.000 NA
ATOM     22  C   UNL     1      45.273   5.448  11.076  0.00  0.00    +0.000 A 
BRANCH  17  24
ATOM     23  N   UNL     1      43.741   2.446  12.563  0.00  0.00    +0.000 N 
ATOM     24  C   UNL     1      44.112   3.319  11.573  0.00  0.00    +0.000 C 
ATOM     25  O   UNL     1      43.647   3.237  10.452  0.00  0.00    +0.000 OA
ATOM     26  H   UNL     1      43.017   1.777  12.325  0.00  0.00    +0.000 HD
ATOM     27  H   UNL     1      43.926   2.611  13.539  0.00  0.00    +0.000 HD
ENDBRANCH  17  24
ENDBRANCH  16  20
ENDBRANCH  15  16
ENDBRANCH   1  15
TORSDOF 6
ENDMDL
