MODEL 1
REMARK VINA RESULT:    -8.241      0.000      0.000
REMARK INTER + INTRA:         -11.215
REMARK INTER:                 -10.650
REMARK INTRA:                  -0.565
REMARK UNBOUND:                -0.565
REMARK  Name = 
REMARK  5 active torsions:
REMARK  status: ('A' for Active; 'I' for Inactive)
REMARK    1  A    between atoms: C_2  and  C_4
REMARK    2  A    between atoms: C_8  and  O_9
REMARK    3  A    between atoms: O_9  and  C_10
REMARK    4  A    between atoms: C_10  and  C_11
REMARK    5  A    between atoms: C_16  and  C_17
REMARK                            x       y       z     vdW  Elec       q    Type
REMARK                         _______ _______ _______ _____ _____    ______ ____
ROOT
ATOM      1  C   UNL     1      44.538   4.395  12.062  0.00  0.00    +0.000 A 
ATOM      2  C   UNL     1      45.349   3.523  12.793  0.00  0.00    +0.000 A 
ATOM      3  C   UNL     1      46.507   4.002  13.396  0.00  0.00    +0.000 A 
ATOM      4  F   UNL     1      47.288   3.153  14.080  0.00  0.00    +0.000 F 
ATOM      5  C   UNL     1      46.894   5.336  13.275  0.00  0.00    +0.000 A 
ATOM      6  C   UNL     1      46.108   6.225  12.536  0.00  0.00    +0.000 A 
ATOM      7  C   UNL     1      44.914   5.743  11.962  0.00  0.00    +0.000 A 
ENDROOT
BRANCH   6   8
ATOM      8  C   UNL     1      46.515   7.655  12.231  0.00  0.00    +0.000 C 
ATOM      9  C   UNL     1      45.464   8.748  12.477  0.00  0.00    +0.000 C 
ATOM     10  C   UNL     1      46.034  10.116  12.091  0.00  0.00    +0.000 C 
ATOM     11  N   UNL     1      47.266  10.429  12.821  0.00  0.00    +0.000 NA
ATOM     12  C   UNL     1      48.286   9.398  12.623  0.00  0.00    +0.000 C 
ATOM     13  C   UNL     1      47.784   8.016  13.025  0.00  0.00    +0.000 C 
ATOM     14  H   UNL     1      47.055  10.499  13.818  0.00  0.00    +0.000 HD
ENDBRANCH   6   8
BRANCH   1  15
ATOM     15  C   UNL     1      43.308   3.893  11.348  0.00  0.00    +0.000 C 
BRANCH  15  16
ATOM     16  O   UNL     1      43.601   2.674  10.665  0.00  0.00    +0.000 OA
BRANCH  16  21
ATOM     17  C   UNL     1      46.057   2.081   8.061  0.00  0.00    +0.000 A 
ATOM     18  C   UNL     1      46.020   3.305   7.396  0.00  0.00    +0.000 A 
ATOM     19  C   UNL     1      45.159   4.272   7.873  0.00  0.00    +0.000 A 
ATOM     20  N   UNL     1      44.362   4.092   8.943  0.00  0.00    +0.000 NA
ATOM     21  C   UNL     1      44.403   2.893   9.560  0.00  0.00    +0.000 A 
ATOM     22  C   UNL     1      45.221   1.854   9.154  0.00  0.00    +0.000 A 
BRANCH  17  24
ATOM     23  N   UNL     1      48.083   1.361   6.923  0.00  0.00    +0.000 N 
ATOM     24  C   UNL     1      46.962   0.997   7.614  0.00  0.00    +0.000 C 
ATOM     25  O   UNL     1      46.735  -0.177   7.882  0.00  0.00    +0.000 OA
ATOM     26  H   UNL     1      48.743   0.618   6.718  0.00  0.00    +0.000 HD
ATOM     27  H   UNL     1      48.432   2.307   6.907  0.00  0.00    +0.000 HD
ENDBRANCH  17  24
ENDBRANCH  16  21
ENDBRANCH  15  16
ENDBRANCH   1  15
TORSDOF 5
ENDMDL
MODEL 2
REMARK VINA RESULT:    -8.069      2.795      6.679
REMARK INTER + INTRA:         -10.993
REMARK INTER:                 -10.268
REMARK INTRA:                  -0.725
REMARK UNBOUND:                -0.565
REMARK  Name = 
REMARK  5 active torsions:
REMARK  status: ('A' for Active; 'I' for Inactive)
REMARK    1  A    between atoms: C_2  and  C_4
REMARK    2  A    between atoms: C_8  and  O_9
REMARK    3  A    between atoms: O_9  and  C_10
REMARK    4  A    between atoms: C_10  and  C_11
REMARK    5  A    between atoms: C_16  and  C_17
REMARK                            x       y       z     vdW  Elec       q    Type
REMARK                         _______ _______ _______ _____ _____    ______ ____
ROOT
ATOM      1  C   UNL     1      44.337   5.013  10.485  0.00  0.00    +0.000 A 
ATOM      2  C   UNL     1      43.594   4.139  11.282  0.00  0.00    +0.000 A 
ATOM      3  C   UNL     1      43.596   2.777  10.998  0.00  0.00    +0.000 A 
ATOM      4  F   UNL     1      42.865   1.950  11.758  0.00  0.00    +0.000 F 
ATOM      5  C   UNL     1      44.311   2.260   9.920  0.00  0.00    +0.000 A 
ATOM      6  C   UNL     1      45.050   3.115   9.098  0.00  0.00    +0.000 A 
ATOM      7  C   UNL     1      45.079   4.488   9.416  0.00  0.00    +0.000 A 
ENDROOT
BRANCH   6   8
ATOM      8  C   UNL     1      45.745   2.668   7.824  0.00  0.00    +0.000 C 
ATOM      9  C   UNL     1      46.717   3.664   7.173  0.00  0.00    +0.000 C 
ATOM     10  C   UNL     1      47.300   3.059   5.892  0.00  0.00    +0.000 C 
ATOM     11  N   UNL     1      47.977   1.783   6.138  0.00  0.00    +0.000 NA
ATOM     12  C   UNL     1      47.085   0.815   6.776  0.00  0.00    +0.000 C 
ATOM     13  C   UNL     1      46.500   1.350   8.078  0.00  0.00    +0.000 C 
ATOM     14  H   UNL     1      48.781   1.943   6.748  0.00  0.00    +0.000 HD
ENDBRANCH   6   8
BRANCH   1  15
ATOM     15  C   UNL     1      44.308   6.501  10.733  0.00  0.00    +0.000 C 
BRANCH  15  16
ATOM     16  O   UNL     1      44.414   6.767  12.132  0.00  0.00    +0.000 OA
BRANCH  16  21
ATOM     17  C   UNL     1      47.124   5.293  14.042  0.00  0.00    +0.000 A 
ATOM     18  C   UNL     1      48.202   6.033  13.561  0.00  0.00    +0.000 A 
ATOM     19  C   UNL     1      47.948   6.999  12.609  0.00  0.00    +0.000 A 
ATOM     20  N   UNL     1      46.718   7.262  12.130  0.00  0.00    +0.000 NA
ATOM     21  C   UNL     1      45.692   6.522  12.598  0.00  0.00    +0.000 A 
ATOM     22  C   UNL     1      45.841   5.522  13.542  0.00  0.00    +0.000 A 
BRANCH  17  24
ATOM     23  N   UNL     1      47.124   4.605  16.375  0.00  0.00    +0.000 N 
ATOM     24  C   UNL     1      47.315   4.245  15.071  0.00  0.00    +0.000 C 
ATOM     25  O   UNL     1      47.598   3.093  14.765  0.00  0.00    +0.000 OA
ATOM     26  H   UNL     1      47.155   3.853  17.055  0.00  0.00    +0.000 HD
ATOM     27  H   UNL     1      46.651   5.454  16.644  0.00  0.00    +0.000 HD
ENDBRANCH  17  24
ENDBRANCH  16  21
ENDBRANCH  15  16
ENDBRANCH   1  15
TORSDOF 5
ENDMDL
MODEL 3
REMARK VINA RESULT:    -7.897      1.784      2.231
REMARK INTER + INTRA:         -10.770
REMARK INTER:                  -9.938
REMARK INTRA:                  -0.832
REMARK UNBOUND:                -0.565
REMARK  Name = 
REMARK  5 active torsions:
REMARK  status: ('A' for Active; 'I' for Inactive)
REMARK    1  A    between atoms: C_2  and  C_4
REMARK    2  A    between atoms: C_8  and  O_9
REMARK    3  A    between atoms: O_9  and  C_10
REMARK    4  A    between atoms: C_10  and  C_11
REMARK    5  A    between atoms: C_16  and  C_17
REMARK                            x       y       z     vdW  Elec       q    Type
REMARK                         _______ _______ _______ _____ _____    ______ ____
ROOT
ATOM      1  C   UNL     1      45.577   5.521  11.696  0.00  0.00    +0.000 A 
ATOM      2  C   UNL     1      45.814   4.772  12.852  0.00  0.00    +0.000 A 
ATOM      3  C   UNL     1      46.903   5.079  13.661  0.00  0.00    +0.000 A 
ATOM      4  F   UNL     1      47.131   4.343  14.757  0.00  0.00    +0.000 F 
ATOM      5  C   UNL     1      47.782   6.111  13.338  0.00  0.00    +0.000 A 
ATOM      6  C   UNL     1      47.577   6.865  12.178  0.00  0.00    +0.000 A 
ATOM      7  C   UNL     1      46.447   6.576  11.385  0.00  0.00    +0.000 A 
ENDROOT
BRANCH   6   8
ATOM      8  C   UNL     1      48.552   7.912  11.670  0.00  0.00    +0.000 C 
ATOM      9  C   UNL     1      48.191   9.383  11.924  0.00  0.00    +0.000 C 
ATOM     10  C   UNL     1      49.266  10.293  11.323  0.00  0.00    +0.000 C 
ATOM     11  N   UNL     1      50.600  10.004  11.854  0.00  0.00    +0.000 NA
ATOM     12  C   UNL     1      50.970   8.603  11.646  0.00  0.00    +0.000 C 
ATOM     13  C   UNL     1      49.951   7.648  12.256  0.00  0.00    +0.000 C 
ATOM     14  H   UNL     1      50.611  10.203  12.856  0.00  0.00    +0.000 HD
ENDBRANCH   6   8
BRANCH   1  15
ATOM     15  C   UNL     1      44.439   5.174  10.769  0.00  0.00    +0.000 C 
BRANCH  15  16
ATOM     16  O   UNL     1      44.890   5.180   9.415  0.00  0.00    +0.000 OA
BRANCH  16  21
ATOM     17  C   UNL     1      46.514   2.532   7.539  0.00  0.00    +0.000 A 
ATOM     18  C   UNL     1      45.911   1.413   8.109  0.00  0.00    +0.000 A 
ATOM     19  C   UNL     1      44.979   1.620   9.105  0.00  0.00    +0.000 A 
ATOM     20  N   UNL     1      44.623   2.842   9.546  0.00  0.00    +0.000 NA
ATOM     21  C   UNL     1      45.233   3.909   8.990  0.00  0.00    +0.000 A 
ATOM     22  C   UNL     1      46.189   3.810   7.996  0.00  0.00    +0.000 A 
BRANCH  17  24
ATOM     23  N   UNL     1      47.337   3.145   5.333  0.00  0.00    +0.000 N 
ATOM     24  C   UNL     1      47.518   2.392   6.459  0.00  0.00    +0.000 C 
ATOM     25  O   UNL     1      48.491   1.657   6.582  0.00  0.00    +0.000 OA
ATOM     26  H   UNL     1      48.087   3.117   4.652  0.00  0.00    +0.000 HD
ATOM     27  H   UNL     1      46.709   3.934   5.299  0.00  0.00    +0.000 HD
ENDBRANCH  17  24
ENDBRANCH  16  21
ENDBRANCH  15  16
ENDBRANCH   1  15
TORSDOF 5
ENDMDL
MODEL 4
REMARK VINA RESULT:    -7.700      1.718      2.433
REMARK INTER + INTRA:         -10.515
REMARK INTER:                  -9.721
REMARK INTRA:                  -0.795
REMARK UNBOUND:                -0.565
REMARK  Name = 
REMARK  5 active torsions:
REMARK  status: ('A' for Active; 'I' for Inactive)
REMARK    1  A    between atoms: C_2  and  C_4
REMARK    2  A    between atoms: C_8  and  O_9
REMARK    3  A    between atoms: O_9  and  C_10
REMARK    4  A    between atoms: C_10  and  C_11
REMARK    5  A    between atoms: C_16  and  C_17
REMARK                            x       y       z     vdW  Elec       q    Type
REMARK                         _______ _______ _______ _____ _____    ______ ____
ROOT
ATOM      1  C   UNL     1      44.742   5.607  11.423  0.00  0.00    +0.000 A 
ATOM      2  C   UNL     1      45.797   5.031  12.135  0.00  0.00    +0.000 A 
ATOM      3  C   UNL     1      46.620   5.832  12.919  0.00  0.00    +0.000 A 
ATOM      4  F   UNL     1      47.640   5.272  13.583  0.00  0.00    +0.000 F 
ATOM      5  C   UNL     1      46.429   7.211  13.001  0.00  0.00    +0.000 A 
ATOM      6  C   UNL     1      45.391   7.815  12.285  0.00  0.00    +0.000 A 
ATOM      7  C   UNL     1      44.535   6.991  11.526  0.00  0.00    +0.000 A 
ENDROOT
BRANCH   6   8
ATOM      8  C   UNL     1      45.189   9.317  12.200  0.00  0.00    +0.000 C 
ATOM      9  C   UNL     1      46.422  10.168  11.857  0.00  0.00    +0.000 C 
ATOM     10  C   UNL     1      46.042  11.651  11.841  0.00  0.00    +0.000 C 
ATOM     11  N   UNL     1      44.956  11.937  10.899  0.00  0.00    +0.000 NA
ATOM     12  C   UNL     1      43.770  11.129  11.185  0.00  0.00    +0.000 C 
ATOM     13  C   UNL     1      44.081   9.637  11.179  0.00  0.00    +0.000 C 
ATOM     14  H   UNL     1      45.275  11.732   9.950  0.00  0.00    +0.000 HD
ENDBRANCH   6   8
BRANCH   1  15
ATOM     15  C   UNL     1      43.871   4.772  10.518  0.00  0.00    +0.000 C 
BRANCH  15  16
ATOM     16  O   UNL     1      44.369   4.815   9.181  0.00  0.00    +0.000 OA
BRANCH  16  21
ATOM     17  C   UNL     1      46.490   2.428   7.458  0.00  0.00    +0.000 A 
ATOM     18  C   UNL     1      46.061   1.240   8.046  0.00  0.00    +0.000 A 
ATOM     19  C   UNL     1      45.068   1.314   9.001  0.00  0.00    +0.000 A 
ATOM     20  N   UNL     1      44.494   2.470   9.385  0.00  0.00    +0.000 NA
ATOM     21  C   UNL     1      44.938   3.609   8.814  0.00  0.00    +0.000 A 
ATOM     22  C   UNL     1      45.936   3.645   7.857  0.00  0.00    +0.000 A 
BRANCH  17  24
ATOM     23  N   UNL     1      47.399   3.301   5.377  0.00  0.00    +0.000 N 
ATOM     24  C   UNL     1      47.546   2.428   6.419  0.00  0.00    +0.000 C 
ATOM     25  O   UNL     1      48.529   1.703   6.506  0.00  0.00    +0.000 OA
ATOM     26  H   UNL     1      48.181   3.363   4.734  0.00  0.00    +0.000 HD
ATOM     27  H   UNL     1      46.756   4.077   5.400  0.00  0.00    +0.000 HD
ENDBRANCH  17  24
ENDBRANCH  16  21
ENDBRANCH  15  16
ENDBRANCH   1  15
TORSDOF 5
ENDMDL
MODEL 5
REMARK VINA RESULT:    -7.630      2.572      3.686
REMARK INTER + INTRA:         -10.424
REMARK INTER:                  -9.844
REMARK INTRA:                  -0.580
REMARK UNBOUND:                -0.565
REMARK  Name = 
REMARK  5 active torsions:
REMARK  status: ('A' for Active; 'I' for Inactive)
REMARK    1  A    between atoms: C_2  and  C_4
REMARK    2  A    between atoms: C_8  and  O_9
REMARK    3  A    between atoms: O_9  and  C_10
REMARK    4  A    between atoms: C_10  and  C_11
REMARK    5  A    between atoms: C_16  and  C_17
REMARK                            x       y       z     vdW  Elec       q    Type
REMARK                         _______ _______ _______ _____ _____    ______ ____
ROOT
ATOM      1  C   UNL     1      45.114   4.766  12.215  0.00  0.00    +0.000 A 
ATOM      2  C   UNL     1      45.773   5.786  11.523  0.00  0.00    +0.000 A 
ATOM      3  C   UNL     1      46.924   6.351  12.061  0.00  0.00    +0.000 A 
ATOM      4  F   UNL     1      47.538   7.341  11.399  0.00  0.00    +0.000 F 
ATOM      5  C   UNL     1      47.433   5.935  13.290  0.00  0.00    +0.000 A 
ATOM      6  C   UNL     1      46.784   4.927  14.010  0.00  0.00    +0.000 A 
ATOM      7  C   UNL     1      45.642   4.330  13.439  0.00  0.00    +0.000 A 
ENDROOT
BRANCH   6   8
ATOM      8  C   UNL     1      47.179   4.506  15.414  0.00  0.00    +0.000 C 
ATOM      9  C   UNL     1      47.765   3.095  15.580  0.00  0.00    +0.000 C 
ATOM     10  C   UNL     1      48.078   2.833  17.056  0.00  0.00    +0.000 C 
ATOM     11  N   UNL     1      48.997   3.829  17.615  0.00  0.00    +0.000 NA
ATOM     12  C   UNL     1      48.478   5.188  17.457  0.00  0.00    +0.000 C 
ATOM     13  C   UNL     1      48.180   5.519  15.999  0.00  0.00    +0.000 C 
ATOM     14  H   UNL     1      49.896   3.760  17.135  0.00  0.00    +0.000 HD
ENDBRANCH   6   8
BRANCH   1  15
ATOM     15  C   UNL     1      43.831   4.175  11.685  0.00  0.00    +0.000 C 
BRANCH  15  16
ATOM     16  O   UNL     1      44.082   2.891  11.114  0.00  0.00    +0.000 OA
BRANCH  16  21
ATOM     17  C   UNL     1      45.981   2.113   8.122  0.00  0.00    +0.000 A 
ATOM     18  C   UNL     1      45.631   3.193   7.314  0.00  0.00    +0.000 A 
ATOM     19  C   UNL     1      44.765   4.133   7.833  0.00  0.00    +0.000 A 
ATOM     20  N   UNL     1      44.249   4.060   9.075  0.00  0.00    +0.000 NA
ATOM     21  C   UNL     1      44.589   2.997   9.832  0.00  0.00    +0.000 A 
ATOM     22  C   UNL     1      45.438   1.993   9.402  0.00  0.00    +0.000 A 
BRANCH  17  24
ATOM     23  N   UNL     1      48.008   1.481   6.935  0.00  0.00    +0.000 N 
ATOM     24  C   UNL     1      46.911   1.067   7.638  0.00  0.00    +0.000 C 
ATOM     25  O   UNL     1      46.727  -0.118   7.887  0.00  0.00    +0.000 OA
ATOM     26  H   UNL     1      48.687   0.764   6.704  0.00  0.00    +0.000 HD
ATOM     27  H   UNL     1      48.326   2.438   6.931  0.00  0.00    +0.000 HD
ENDBRANCH  17  24
ENDBRANCH  16  21
ENDBRANCH  15  16
ENDBRANCH   1  15
TORSDOF 5
ENDMDL
MODEL 6
REMARK VINA RESULT:    -7.618      4.105      7.755
REMARK INTER + INTRA:         -10.410
REMARK INTER:                  -9.743
REMARK INTRA:                  -0.667
REMARK UNBOUND:                -0.565
REMARK  Name = 
REMARK  5 active torsions:
REMARK  status: ('A' for Active; 'I' for Inactive)
REMARK    1  A    between atoms: C_2  and  C_4
REMARK    2  A    between atoms: C_8  and  O_9
REMARK    3  A    between atoms: O_9  and  C_10
REMARK    4  A    between atoms: C_10  and  C_11
REMARK    5  A    between atoms: C_16  and  C_17
REMARK                            x       y       z     vdW  Elec       q    Type
REMARK                         _______ _______ _______ _____ _____    ______ ____
ROOT
ATOM      1  C   UNL     1      45.110   4.783  12.750  0.00  0.00    +0.000 A 
ATOM      2  C   UNL     1      43.864   5.398  12.894  0.00  0.00    +0.000 A 
ATOM      3  C   UNL     1      42.949   5.354  11.847  0.00  0.00    +0.000 A 
ATOM      4  F   UNL     1      41.763   5.963  11.988  0.00  0.00    +0.000 F 
ATOM      5  C   UNL     1      43.252   4.724  10.641  0.00  0.00    +0.000 A 
ATOM      6  C   UNL     1      44.499   4.115  10.466  0.00  0.00    +0.000 A 
ATOM      7  C   UNL     1      45.405   4.126  11.546  0.00  0.00    +0.000 A 
ENDROOT
BRANCH   6   8
ATOM      8  C   UNL     1      44.972   3.529   9.148  0.00  0.00    +0.000 C 
ATOM      9  C   UNL     1      45.958   4.370   8.324  0.00  0.00    +0.000 C 
ATOM     10  C   UNL     1      46.303   3.641   7.022  0.00  0.00    +0.000 C 
ATOM     11  N   UNL     1      46.860   2.307   7.264  0.00  0.00    +0.000 NA
ATOM     12  C   UNL     1      45.953   1.482   8.064  0.00  0.00    +0.000 C 
ATOM     13  C   UNL     1      45.601   2.144   9.391  0.00  0.00    +0.000 C 
ATOM     14  H   UNL     1      47.747   2.400   7.761  0.00  0.00    +0.000 HD
ENDBRANCH   6   8
BRANCH   1  15
ATOM     15  C   UNL     1      46.144   4.864  13.845  0.00  0.00    +0.000 C 
BRANCH  15  16
ATOM     16  O   UNL     1      46.748   3.586  14.046  0.00  0.00    +0.000 OA
BRANCH  16  21
ATOM     17  C   UNL     1      47.866   4.516  17.370  0.00  0.00    +0.000 A 
ATOM     18  C   UNL     1      48.664   3.418  17.684  0.00  0.00    +0.000 A 
ATOM     19  C   UNL     1      48.781   2.416  16.743  0.00  0.00    +0.000 A 
ATOM     20  N   UNL     1      48.169   2.450  15.543  0.00  0.00    +0.000 NA
ATOM     21  C   UNL     1      47.388   3.515  15.269  0.00  0.00    +0.000 A 
ATOM     22  C   UNL     1      47.194   4.566  16.147  0.00  0.00    +0.000 A 
BRANCH  17  24
ATOM     23  N   UNL     1      46.949   5.398  19.443  0.00  0.00    +0.000 N 
ATOM     24  C   UNL     1      47.697   5.636  18.325  0.00  0.00    +0.000 C 
ATOM     25  O   UNL     1      48.234   6.721  18.139  0.00  0.00    +0.000 OA
ATOM     26  H   UNL     1      46.932   6.140  20.135  0.00  0.00    +0.000 HD
ATOM     27  H   UNL     1      46.712   4.469  19.755  0.00  0.00    +0.000 HD
ENDBRANCH  17  24
ENDBRANCH  16  21
ENDBRANCH  15  16
ENDBRANCH   1  15
TORSDOF 5
ENDMDL
MODEL 7
REMARK VINA RESULT:    -7.575      3.070      7.092
REMARK INTER + INTRA:         -10.353
REMARK INTER:                  -9.497
REMARK INTRA:                  -0.856
REMARK UNBOUND:                -0.565
REMARK  Name = 
REMARK  5 active torsions:
REMARK  status: ('A' for Active; 'I' for Inactive)
REMARK    1  A    between atoms: C_2  and  C_4
REMARK    2  A    between atoms: C_8  and  O_9
REMARK    3  A    between atoms: O_9  and  C_10
REMARK    4  A    between atoms: C_10  and  C_11
REMARK    5  A    between atoms: C_16  and  C_17
REMARK                            x       y       z     vdW  Elec       q    Type
REMARK                         _______ _______ _______ _____ _____    ______ ____
ROOT
ATOM      1  C   UNL     1      45.362   6.407  11.218  0.00  0.00    +0.000 A 
ATOM      2  C   UNL     1      44.056   6.377  11.714  0.00  0.00    +0.000 A 
ATOM      3  C   UNL     1      43.161   5.423  11.242  0.00  0.00    +0.000 A 
ATOM      4  F   UNL     1      41.905   5.415  11.710  0.00  0.00    +0.000 F 
ATOM      5  C   UNL     1      43.530   4.498  10.266  0.00  0.00    +0.000 A 
ATOM      6  C   UNL     1      44.826   4.517   9.742  0.00  0.00    +0.000 A 
ATOM      7  C   UNL     1      45.740   5.459  10.255  0.00  0.00    +0.000 A 
ENDROOT
BRANCH   6   8
ATOM      8  C   UNL     1      45.279   3.646   8.584  0.00  0.00    +0.000 C 
ATOM      9  C   UNL     1      46.383   4.211   7.677  0.00  0.00    +0.000 C 
ATOM     10  C   UNL     1      46.692   3.217   6.553  0.00  0.00    +0.000 C 
ATOM     11  N   UNL     1      47.085   1.902   7.067  0.00  0.00    +0.000 NA
ATOM     12  C   UNL     1      46.062   1.342   7.950  0.00  0.00    +0.000 C 
ATOM     13  C   UNL     1      45.738   2.275   9.111  0.00  0.00    +0.000 C 
ATOM     14  H   UNL     1      47.958   1.995   7.589  0.00  0.00    +0.000 HD
ENDBRANCH   6   8
BRANCH   1  15
ATOM     15  C   UNL     1      46.336   7.467  11.668  0.00  0.00    +0.000 C 
BRANCH  15  16
ATOM     16  O   UNL     1      47.647   6.912  11.779  0.00  0.00    +0.000 OA
BRANCH  16  21
ATOM     17  C   UNL     1      47.967   5.562  15.132  0.00  0.00    +0.000 A 
ATOM     18  C   UNL     1      48.762   6.542  15.723  0.00  0.00    +0.000 A 
ATOM     19  C   UNL     1      49.147   7.615  14.946  0.00  0.00    +0.000 A 
ATOM     20  N   UNL     1      48.791   7.763  13.656  0.00  0.00    +0.000 NA
ATOM     21  C   UNL     1      48.035   6.792  13.100  0.00  0.00    +0.000 A 
ATOM     22  C   UNL     1      47.607   5.671  13.788  0.00  0.00    +0.000 A 
BRANCH  17  24
ATOM     23  N   UNL     1      46.977   4.614  17.141  0.00  0.00    +0.000 N 
ATOM     24  C   UNL     1      47.506   4.384  15.903  0.00  0.00    +0.000 C 
ATOM     25  O   UNL     1      47.565   3.252  15.437  0.00  0.00    +0.000 OA
ATOM     26  H   UNL     1      46.571   3.811  17.609  0.00  0.00    +0.000 HD
ATOM     27  H   UNL     1      46.680   5.528  17.448  0.00  0.00    +0.000 HD
ENDBRANCH  17  24
ENDBRANCH  16  21
ENDBRANCH  15  16
ENDBRANCH   1  15
TORSDOF 5
ENDMDL
MODEL 8
REMARK VINA RESULT:    -7.564      2.814      6.896
REMARK INTER + INTRA:         -10.340
REMARK INTER:                  -9.418
REMARK INTRA:                  -0.922
REMARK UNBOUND:                -0.565
REMARK  Name = 
REMARK  5 active torsions:
REMARK  status: ('A' for Active; 'I' for Inactive)
REMARK    1  A    between atoms: C_2  and  C_4
REMARK    2  A    between atoms: C_8  and  O_9
REMARK    3  A    between atoms: O_9  and  C_10
REMARK    4  A    between atoms: C_10  and  C_11
REMARK    5  A    between atoms: C_16  and  C_17
REMARK                            x       y       z     vdW  Elec       q    Type
REMARK                         _______ _______ _______ _____ _____    ______ ____
ROOT
ATOM      1  C   UNL     1      44.583   5.119  10.565  0.00  0.00    +0.000 A 
ATOM      2  C   UNL     1      43.781   4.294  11.358  0.00  0.00    +0.000 A 
ATOM      3  C   UNL     1      43.665   2.943  11.049  0.00  0.00    +0.000 A 
ATOM      4  F   UNL     1      42.879   2.164  11.805  0.00  0.00    +0.000 F 
ATOM      5  C   UNL     1      44.319   2.388   9.950  0.00  0.00    +0.000 A 
ATOM      6  C   UNL     1      45.114   3.195   9.131  0.00  0.00    +0.000 A 
ATOM      7  C   UNL     1      45.262   4.555   9.474  0.00  0.00    +0.000 A 
ENDROOT
BRANCH   6   8
ATOM      8  C   UNL     1      45.751   2.717   7.839  0.00  0.00    +0.000 C 
ATOM      9  C   UNL     1      46.689   3.697   7.118  0.00  0.00    +0.000 C 
ATOM     10  C   UNL     1      47.214   3.061   5.828  0.00  0.00    +0.000 C 
ATOM     11  N   UNL     1      47.905   1.792   6.074  0.00  0.00    +0.000 NA
ATOM     12  C   UNL     1      47.045   0.839   6.777  0.00  0.00    +0.000 C 
ATOM     13  C   UNL     1      46.519   1.406   8.091  0.00  0.00    +0.000 C 
ATOM     14  H   UNL     1      48.735   1.969   6.642  0.00  0.00    +0.000 HD
ENDBRANCH   6   8
BRANCH   1  15
ATOM     15  C   UNL     1      44.681   6.599  10.840  0.00  0.00    +0.000 C 
BRANCH  15  16
ATOM     16  O   UNL     1      44.820   6.828  12.243  0.00  0.00    +0.000 OA
BRANCH  16  21
ATOM     17  C   UNL     1      48.371   7.571  12.314  0.00  0.00    +0.000 A 
ATOM     18  C   UNL     1      48.781   6.739  13.354  0.00  0.00    +0.000 A 
ATOM     19  C   UNL     1      47.824   5.965  13.976  0.00  0.00    +0.000 A 
ATOM     20  N   UNL     1      46.524   5.971  13.628  0.00  0.00    +0.000 NA
ATOM     21  C   UNL     1      46.147   6.798  12.630  0.00  0.00    +0.000 A 
ATOM     22  C   UNL     1      47.025   7.623  11.951  0.00  0.00    +0.000 A 
BRANCH  17  24
ATOM     23  N   UNL     1      48.996   9.734  11.392  0.00  0.00    +0.000 N 
ATOM     24  C   UNL     1      49.341   8.426  11.592  0.00  0.00    +0.000 C 
ATOM     25  O   UNL     1      50.423   7.990  11.218  0.00  0.00    +0.000 OA
ATOM     26  H   UNL     1      49.714  10.328  10.992  0.00  0.00    +0.000 HD
ATOM     27  H   UNL     1      48.250  10.185  11.897  0.00  0.00    +0.000 HD
ENDBRANCH  17  24
ENDBRANCH  16  21
ENDBRANCH  15  16
ENDBRANCH   1  15
TORSDOF 5
ENDMDL
MODEL 9
REMARK VINA RESULT:    -7.264      4.307      7.760
REMARK INTER + INTRA:          -9.952
REMARK INTER:                  -9.178
REMARK INTRA:                  -0.774
REMARK UNBOUND:                -0.565
REMARK  Name = 
REMARK  5 active torsions:
REMARK  status: ('A' for Active; 'I' for Inactive)
REMARK    1  A    between atoms: C_2  and  C_4
REMARK    2  A    between atoms: C_8  and  O_9
REMARK    3  A    between atoms: O_9  and  C_10
REMARK    4  A    between atoms: C_10  and  C_11
REMARK    5  A    between atoms: C_16  and  C_17
REMARK                            x       y       z     vdW  Elec       q    Type
REMARK                         _______ _______ _______ _____ _____    ______ ____
ROOT
ATOM      1  C   UNL     1      47.211   6.913  12.942  0.00  0.00    +0.000 A 
ATOM      2  C   UNL     1      46.612   8.169  13.069  0.00  0.00    +0.000 A 
ATOM      3  C   UNL     1      45.396   8.419  12.443  0.00  0.00    +0.000 A 
ATOM      4  F   UNL     1      44.839   9.633  12.556  0.00  0.00    +0.000 F 
ATOM      5  C   UNL     1      44.761   7.448  11.671  0.00  0.00    +0.000 A 
ATOM      6  C   UNL     1      45.347   6.188  11.515  0.00  0.00    +0.000 A 
ATOM      7  C   UNL     1      46.559   5.927  12.187  0.00  0.00    +0.000 A 
ENDROOT
BRANCH   6   8
ATOM      8  C   UNL     1      44.806   5.116  10.586  0.00  0.00    +0.000 C 
ATOM      9  C   UNL     1      45.530   4.924   9.245  0.00  0.00    +0.000 C 
ATOM     10  C   UNL     1      44.836   3.829   8.431  0.00  0.00    +0.000 C 
ATOM     11  N   UNL     1      44.770   2.556   9.154  0.00  0.00    +0.000 NA
ATOM     12  C   UNL     1      44.101   2.706  10.447  0.00  0.00    +0.000 C 
ATOM     13  C   UNL     1      44.772   3.762  11.317  0.00  0.00    +0.000 C 
ATOM     14  H   UNL     1      45.719   2.212   9.311  0.00  0.00    +0.000 HD
ENDBRANCH   6   8
BRANCH   1  15
ATOM     15  C   UNL     1      48.558   6.632  13.560  0.00  0.00    +0.000 C 
BRANCH  15  16
ATOM     16  O   UNL     1      48.640   7.235  14.852  0.00  0.00    +0.000 OA
BRANCH  16  21
ATOM     17  C   UNL     1      48.709   4.547  17.288  0.00  0.00    +0.000 A 
ATOM     18  C   UNL     1      50.045   4.599  17.682  0.00  0.00    +0.000 A 
ATOM     19  C   UNL     1      50.854   5.551  17.096  0.00  0.00    +0.000 A 
ATOM     20  N   UNL     1      50.417   6.429  16.173  0.00  0.00    +0.000 NA
ATOM     21  C   UNL     1      49.125   6.348  15.795  0.00  0.00    +0.000 A 
ATOM     22  C   UNL     1      48.235   5.423  16.310  0.00  0.00    +0.000 A 
BRANCH  17  24
ATOM     23  N   UNL     1      48.123   3.011  19.080  0.00  0.00    +0.000 N 
ATOM     24  C   UNL     1      47.777   3.559  17.877  0.00  0.00    +0.000 C 
ATOM     25  O   UNL     1      46.722   3.268  17.327  0.00  0.00    +0.000 OA
ATOM     26  H   UNL     1      47.426   2.418  19.518  0.00  0.00    +0.000 HD
ATOM     27  H   UNL     1      48.836   3.404  19.675  0.00  0.00    +0.000 HD
ENDBRANCH  17  24
ENDBRANCH  16  21
ENDBRANCH  15  16
ENDBRANCH   1  15
TORSDOF 5
ENDMDL
