MODEL 1
REMARK VINA RESULT:    -7.386      0.000      0.000
REMARK INTER + INTRA:          -9.378
REMARK INTER:                  -8.897
REMARK INTRA:                  -0.481
REMARK UNBOUND:                -0.481
REMARK  Name = 
REMARK  4 active torsions:
REMARK  status: ('A' for Active; 'I' for Inactive)
REMARK    1  A    between atoms: O_1  and  C_2
REMARK    2  A    between atoms: C_5  and  C_6
REMARK    3  A    between atoms: C_6  and  C_7
REMARK    4  A    between atoms: C_11  and  C_12
REMARK                            x       y       z     vdW  Elec       q    Type
REMARK                         _______ _______ _______ _____ _____    ______ ____
ROOT
ATOM      1  C   UNL     1      45.469   4.924  12.055  0.00  0.00    +0.000 A 
ATOM      2  C   UNL     1      45.847   4.230  13.214  0.00  0.00    +0.000 A 
ATOM      3  C   UNL     1      46.887   4.687  14.021  0.00  0.00    +0.000 A 
ATOM      4  C   UNL     1      47.574   5.853  13.680  0.00  0.00    +0.000 A 
ATOM      5  C   UNL     1      47.212   6.606  12.550  0.00  0.00    +0.000 A 
ATOM      6  C   UNL     1      46.129   6.138  11.783  0.00  0.00    +0.000 A 
ENDROOT
BRANCH   5   7
ATOM      7  C   UNL     1      47.997   7.775  12.109  0.00  0.00    +0.000 A 
ATOM      8  C   UNL     1      47.436   9.061  12.100  0.00  0.00    +0.000 A 
ATOM      9  C   UNL     1      48.225  10.147  11.750  0.00  0.00    +0.000 A 
ATOM     10  N   UNL     1      49.526  10.052  11.412  0.00  0.00    +0.000 NA
ATOM     11  C   UNL     1      50.056   8.813  11.418  0.00  0.00    +0.000 A 
ATOM     12  C   UNL     1      49.343   7.665  11.742  0.00  0.00    +0.000 A 
ENDBRANCH   5   7
BRANCH   1  13
ATOM     13  C   UNL     1      44.495   4.308  11.050  0.00  0.00    +0.000 C 
ATOM     14  C   UNL     1      43.193   3.706  11.591  0.00  0.00    +0.000 C 
ATOM     15  C   UNL     1      43.153   5.039  10.925  0.00  0.00    +0.000 C 
BRANCH  13  19
ATOM     16  C   UNL     1      46.275   2.591   7.535  0.00  0.00    +0.000 A 
ATOM     17  C   UNL     1      46.228   3.969   7.645  0.00  0.00    +0.000 A 
ATOM     18  C   UNL     1      45.619   4.532   8.769  0.00  0.00    +0.000 A 
ATOM     19  C   UNL     1      45.078   3.709   9.767  0.00  0.00    +0.000 A 
ATOM     20  N   UNL     1      45.120   2.356   9.644  0.00  0.00    +0.000 NA
ATOM     21  C   UNL     1      45.710   1.831   8.544  0.00  0.00    +0.000 A 
BRANCH  16  22
ATOM     22  O   UNL     1      46.864   1.970   6.477  0.00  0.00    +0.000 OA
ATOM     23  H   UNL     1      47.628   2.496   6.189  0.00  0.00    +0.000 HD
ENDBRANCH  16  22
ENDBRANCH  13  19
ENDBRANCH   1  13
TORSDOF 4
ENDMDL
MODEL 2
REMARK VINA RESULT:    -7.152      1.216      1.767
REMARK INTER + INTRA:          -9.096
REMARK INTER:                  -8.584
REMARK INTRA:                  -0.512
REMARK UNBOUND:                -0.481
REMARK  Name = 
REMARK  4 active torsions:
REMARK  status: ('A' for Active; 'I' for Inactive)
REMARK    1  A    between atoms: O_1  and  C_2
REMARK    2  A    between atoms: C_5  and  C_6
REMARK    3  A    between atoms: C_6  and  C_7
REMARK    4  A    between atoms: C_11  and  C_12
REMARK                            x       y       z     vdW  Elec       q    Type
REMARK                         _______ _______ _______ _____ _____    ______ ____
ROOT
ATOM      1  C   UNL     1      45.306   4.920  12.212  0.00  0.00    +0.000 A 
ATOM      2  C   UNL     1      46.248   4.377  13.097  0.00  0.00    +0.000 A 
ATOM      3  C   UNL     1      47.177   5.187  13.748  0.00  0.00    +0.000 A 
ATOM      4  C   UNL     1      47.180   6.565  13.523  0.00  0.00    +0.000 A 
ATOM      5  C   UNL     1      46.234   7.164  12.673  0.00  0.00    +0.000 A 
ATOM      6  C   UNL     1      45.285   6.321  12.067  0.00  0.00    +0.000 A 
ENDROOT
BRANCH   5   7
ATOM      7  C   UNL     1      46.294   8.599  12.333  0.00  0.00    +0.000 A 
ATOM      8  C   UNL     1      47.523   9.247  12.142  0.00  0.00    +0.000 A 
ATOM      9  C   UNL     1      47.539  10.577  11.751  0.00  0.00    +0.000 A 
ATOM     10  N   UNL     1      46.430  11.310  11.534  0.00  0.00    +0.000 NA
ATOM     11  C   UNL     1      45.253  10.682  11.724  0.00  0.00    +0.000 A 
ATOM     12  C   UNL     1      45.136   9.357  12.126  0.00  0.00    +0.000 A 
ENDBRANCH   5   7
BRANCH   1  13
ATOM     13  C   UNL     1      44.447   4.019  11.324  0.00  0.00    +0.000 C 
ATOM     14  C   UNL     1      43.491   3.038  12.012  0.00  0.00    +0.000 C 
ATOM     15  C   UNL     1      42.939   4.284  11.407  0.00  0.00    +0.000 C 
BRANCH  13  19
ATOM     16  C   UNL     1      46.162   2.881   7.551  0.00  0.00    +0.000 A 
ATOM     17  C   UNL     1      46.038   4.229   7.841  0.00  0.00    +0.000 A 
ATOM     18  C   UNL     1      45.449   4.604   9.051  0.00  0.00    +0.000 A 
ATOM     19  C   UNL     1      45.005   3.627   9.953  0.00  0.00    +0.000 A 
ATOM     20  N   UNL     1      45.122   2.306   9.654  0.00  0.00    +0.000 NA
ATOM     21  C   UNL     1      45.691   1.965   8.473  0.00  0.00    +0.000 A 
BRANCH  16  22
ATOM     22  O   UNL     1      46.738   2.440   6.400  0.00  0.00    +0.000 OA
ATOM     23  H   UNL     1      47.322   1.691   6.606  0.00  0.00    +0.000 HD
ENDBRANCH  16  22
ENDBRANCH  13  19
ENDBRANCH   1  13
TORSDOF 4
ENDMDL
MODEL 3
REMARK VINA RESULT:    -7.077      2.266      3.438
REMARK INTER + INTRA:          -9.006
REMARK INTER:                  -8.556
REMARK INTRA:                  -0.450
REMARK UNBOUND:                -0.481
REMARK  Name = 
REMARK  4 active torsions:
REMARK  status: ('A' for Active; 'I' for Inactive)
REMARK    1  A    between atoms: O_1  and  C_2
REMARK    2  A    between atoms: C_5  and  C_6
REMARK    3  A    between atoms: C_6  and  C_7
REMARK    4  A    between atoms: C_11  and  C_12
REMARK                            x       y       z     vdW  Elec       q    Type
REMARK                         _______ _______ _______ _____ _____    ______ ____
ROOT
ATOM      1  C   UNL     1      45.496   5.389  11.712  0.00  0.00    +0.000 A 
ATOM      2  C   UNL     1      45.454   6.756  11.404  0.00  0.00    +0.000 A 
ATOM      3  C   UNL     1      46.117   7.693  12.194  0.00  0.00    +0.000 A 
ATOM      4  C   UNL     1      46.838   7.276  13.315  0.00  0.00    +0.000 A 
ATOM      5  C   UNL     1      46.943   5.914  13.646  0.00  0.00    +0.000 A 
ATOM      6  C   UNL     1      46.297   4.993  12.801  0.00  0.00    +0.000 A 
ENDROOT
BRANCH   5   7
ATOM      7  C   UNL     1      47.602   5.464  14.887  0.00  0.00    +0.000 A 
ATOM      8  C   UNL     1      48.547   6.270  15.538  0.00  0.00    +0.000 A 
ATOM      9  C   UNL     1      49.092   5.847  16.741  0.00  0.00    +0.000 A 
ATOM     10  N   UNL     1      48.769   4.687  17.345  0.00  0.00    +0.000 NA
ATOM     11  C   UNL     1      47.864   3.916  16.711  0.00  0.00    +0.000 A 
ATOM     12  C   UNL     1      47.273   4.249  15.499  0.00  0.00    +0.000 A 
ENDBRANCH   5   7
BRANCH   1  13
ATOM     13  C   UNL     1      44.587   4.390  10.993  0.00  0.00    +0.000 C 
ATOM     14  C   UNL     1      43.573   3.610  11.837  0.00  0.00    +0.000 C 
ATOM     15  C   UNL     1      43.098   4.753  11.006  0.00  0.00    +0.000 C 
BRANCH  13  19
ATOM     16  C   UNL     1      46.240   2.478   7.517  0.00  0.00    +0.000 A 
ATOM     17  C   UNL     1      46.212   3.861   7.559  0.00  0.00    +0.000 A 
ATOM     18  C   UNL     1      45.644   4.487   8.672  0.00  0.00    +0.000 A 
ATOM     19  C   UNL     1      45.125   3.721   9.725  0.00  0.00    +0.000 A 
ATOM     20  N   UNL     1      45.148   2.363   9.668  0.00  0.00    +0.000 NA
ATOM     21  C   UNL     1      45.698   1.777   8.578  0.00  0.00    +0.000 A 
BRANCH  16  22
ATOM     22  O   UNL     1      46.790   1.799   6.474  0.00  0.00    +0.000 OA
ATOM     23  H   UNL     1      47.755   1.906   6.502  0.00  0.00    +0.000 HD
ENDBRANCH  16  22
ENDBRANCH  13  19
ENDBRANCH   1  13
TORSDOF 4
ENDMDL
MODEL 4
REMARK VINA RESULT:    -6.555      1.462      2.180
REMARK INTER + INTRA:          -8.378
REMARK INTER:                  -8.102
REMARK INTRA:                  -0.276
REMARK UNBOUND:                -0.481
REMARK  Name = 
REMARK  4 active torsions:
REMARK  status: ('A' for Active; 'I' for Inactive)
REMARK    1  A    between atoms: O_1  and  C_2
REMARK    2  A    between atoms: C_5  and  C_6
REMARK    3  A    between atoms: C_6  and  C_7
REMARK    4  A    between atoms: C_11  and  C_12
REMARK                            x       y       z     vdW  Elec       q    Type
REMARK                         _______ _______ _______ _____ _____    ______ ____
ROOT
ATOM      1  C   UNL     1      45.117   5.667  11.235  0.00  0.00    +0.000 A 
ATOM      2  C   UNL     1      44.195   6.721  11.157  0.00  0.00    +0.000 A 
ATOM      3  C   UNL     1      44.502   7.985  11.657  0.00  0.00    +0.000 A 
ATOM      4  C   UNL     1      45.745   8.218  12.250  0.00  0.00    +0.000 A 
ATOM      5  C   UNL     1      46.717   7.206  12.321  0.00  0.00    +0.000 A 
ATOM      6  C   UNL     1      46.389   5.955  11.768  0.00  0.00    +0.000 A 
ENDROOT
BRANCH   5   7
ATOM      7  C   UNL     1      47.989   7.398  13.045  0.00  0.00    +0.000 A 
ATOM      8  C   UNL     1      48.148   6.941  14.361  0.00  0.00    +0.000 A 
ATOM      9  C   UNL     1      49.380   7.073  14.985  0.00  0.00    +0.000 A 
ATOM     10  N   UNL     1      50.463   7.621  14.400  0.00  0.00    +0.000 NA
ATOM     11  C   UNL     1      50.301   8.063  13.138  0.00  0.00    +0.000 A 
ATOM     12  C   UNL     1      49.104   7.985  12.436  0.00  0.00    +0.000 A 
ENDBRANCH   5   7
BRANCH   1  13
ATOM     13  C   UNL     1      44.702   4.232  10.904  0.00  0.00    +0.000 C 
ATOM     14  C   UNL     1      44.397   3.288  12.073  0.00  0.00    +0.000 C 
ATOM     15  C   UNL     1      43.265   3.872  11.297  0.00  0.00    +0.000 C 
BRANCH  13  19
ATOM     16  C   UNL     1      46.362   2.470   7.353  0.00  0.00    +0.000 A 
ATOM     17  C   UNL     1      46.275   3.848   7.427  0.00  0.00    +0.000 A 
ATOM     18  C   UNL     1      45.703   4.425   8.564  0.00  0.00    +0.000 A 
ATOM     19  C   UNL     1      45.241   3.615   9.611  0.00  0.00    +0.000 A 
ATOM     20  N   UNL     1      45.323   2.260   9.524  0.00  0.00    +0.000 NA
ATOM     21  C   UNL     1      45.874   1.723   8.410  0.00  0.00    +0.000 A 
BRANCH  16  22
ATOM     22  O   UNL     1      46.918   1.837   6.285  0.00  0.00    +0.000 OA
ATOM     23  H   UNL     1      47.852   2.097   6.216  0.00  0.00    +0.000 HD
ENDBRANCH  16  22
ENDBRANCH  13  19
ENDBRANCH   1  13
TORSDOF 4
ENDMDL
MODEL 5
REMARK VINA RESULT:    -6.254      2.985      6.727
REMARK INTER + INTRA:          -8.015
REMARK INTER:                  -7.828
REMARK INTRA:                  -0.187
REMARK UNBOUND:                -0.481
REMARK  Name = 
REMARK  4 active torsions:
REMARK  status: ('A' for Active; 'I' for Inactive)
REMARK    1  A    between atoms: O_1  and  C_2
REMARK    2  A    between atoms: C_5  and  C_6
REMARK    3  A    between atoms: C_6  and  C_7
REMARK    4  A    between atoms: C_11  and  C_12
REMARK                            x       y       z     vdW  Elec       q    Type
REMARK                         _______ _______ _______ _____ _____    ______ ____
ROOT
ATOM      1  C   UNL     1      45.390   5.896  12.003  0.00  0.00    +0.000 A 
ATOM      2  C   UNL     1      44.009   6.119  12.110  0.00  0.00    +0.000 A 
ATOM      3  C   UNL     1      43.110   5.497  11.247  0.00  0.00    +0.000 A 
ATOM      4  C   UNL     1      43.578   4.635  10.253  0.00  0.00    +0.000 A 
ATOM      5  C   UNL     1      44.949   4.349  10.127  0.00  0.00    +0.000 A 
ATOM      6  C   UNL     1      45.823   4.962  11.043  0.00  0.00    +0.000 A 
ENDROOT
BRANCH   5   7
ATOM      7  C   UNL     1      45.474   3.534   9.015  0.00  0.00    +0.000 A 
ATOM      8  C   UNL     1      46.038   4.135   7.880  0.00  0.00    +0.000 A 
ATOM      9  C   UNL     1      46.588   3.338   6.887  0.00  0.00    +0.000 A 
ATOM     10  N   UNL     1      46.621   1.992   6.937  0.00  0.00    +0.000 NA
ATOM     11  C   UNL     1      46.073   1.421   8.028  0.00  0.00    +0.000 A 
ATOM     12  C   UNL     1      45.489   2.135   9.067  0.00  0.00    +0.000 A 
ENDBRANCH   5   7
BRANCH   1  13
ATOM     13  C   UNL     1      46.389   6.750  12.786  0.00  0.00    +0.000 C 
ATOM     14  C   UNL     1      47.198   7.796  12.012  0.00  0.00    +0.000 C 
ATOM     15  C   UNL     1      46.048   8.243  12.849  0.00  0.00    +0.000 C 
BRANCH  13  19
ATOM     16  C   UNL     1      48.316   4.971  16.191  0.00  0.00    +0.000 A 
ATOM     17  C   UNL     1      47.263   4.295  15.601  0.00  0.00    +0.000 A 
ATOM     18  C   UNL     1      46.610   4.886  14.516  0.00  0.00    +0.000 A 
ATOM     19  C   UNL     1      47.029   6.134  14.033  0.00  0.00    +0.000 A 
ATOM     20  N   UNL     1      48.058   6.794  14.627  0.00  0.00    +0.000 NA
ATOM     21  C   UNL     1      48.672   6.206  15.682  0.00  0.00    +0.000 A 
BRANCH  16  22
ATOM     22  O   UNL     1      49.008   4.453  17.242  0.00  0.00    +0.000 OA
ATOM     23  H   UNL     1      49.558   3.717  16.925  0.00  0.00    +0.000 HD
ENDBRANCH  16  22
ENDBRANCH  13  19
ENDBRANCH   1  13
TORSDOF 4
ENDMDL
MODEL 6
REMARK VINA RESULT:    -6.157      2.801      6.465
REMARK INTER + INTRA:          -7.897
REMARK INTER:                  -7.715
REMARK INTRA:                  -0.182
REMARK UNBOUND:                -0.481
REMARK  Name = 
REMARK  4 active torsions:
REMARK  status: ('A' for Active; 'I' for Inactive)
REMARK    1  A    between atoms: O_1  and  C_2
REMARK    2  A    between atoms: C_5  and  C_6
REMARK    3  A    between atoms: C_6  and  C_7
REMARK    4  A    between atoms: C_11  and  C_12
REMARK                            x       y       z     vdW  Elec       q    Type
REMARK                         _______ _______ _______ _____ _____    ______ ____
ROOT
ATOM      1  C   UNL     1      45.105   6.637  11.644  0.00  0.00    +0.000 A 
ATOM      2  C   UNL     1      43.761   6.446  11.997  0.00  0.00    +0.000 A 
ATOM      3  C   UNL     1      43.015   5.401  11.453  0.00  0.00    +0.000 A 
ATOM      4  C   UNL     1      43.603   4.525  10.540  0.00  0.00    +0.000 A 
ATOM      5  C   UNL     1      44.956   4.651  10.180  0.00  0.00    +0.000 A 
ATOM      6  C   UNL     1      45.690   5.690  10.781  0.00  0.00    +0.000 A 
ENDROOT
BRANCH   5   7
ATOM      7  C   UNL     1      45.564   3.808   9.132  0.00  0.00    +0.000 A 
ATOM      8  C   UNL     1      45.508   2.409   9.206  0.00  0.00    +0.000 A 
ATOM      9  C   UNL     1      46.025   1.650   8.167  0.00  0.00    +0.000 A 
ATOM     10  N   UNL     1      46.591   2.174   7.063  0.00  0.00    +0.000 NA
ATOM     11  C   UNL     1      46.646   3.519   7.001  0.00  0.00    +0.000 A 
ATOM     12  C   UNL     1      46.166   4.362   7.996  0.00  0.00    +0.000 A 
ENDBRANCH   5   7
BRANCH   1  13
ATOM     13  C   UNL     1      45.853   7.907  12.051  0.00  0.00    +0.000 C 
ATOM     14  C   UNL     1      45.458   9.221  11.368  0.00  0.00    +0.000 C 
ATOM     15  C   UNL     1      44.994   8.960  12.760  0.00  0.00    +0.000 C 
BRANCH  13  19
ATOM     16  C   UNL     1      49.886   7.616  13.508  0.00  0.00    +0.000 A 
ATOM     17  C   UNL     1      49.663   8.269  12.309  0.00  0.00    +0.000 A 
ATOM     18  C   UNL     1      48.358   8.336  11.814  0.00  0.00    +0.000 A 
ATOM     19  C   UNL     1      47.300   7.759  12.530  0.00  0.00    +0.000 A 
ATOM     20  N   UNL     1      47.532   7.111  13.702  0.00  0.00    +0.000 NA
ATOM     21  C   UNL     1      48.805   7.053  14.161  0.00  0.00    +0.000 A 
BRANCH  16  22
ATOM     22  O   UNL     1      51.126   7.523  14.059  0.00  0.00    +0.000 OA
ATOM     23  H   UNL     1      51.593   8.366  13.931  0.00  0.00    +0.000 HD
ENDBRANCH  16  22
ENDBRANCH  13  19
ENDBRANCH   1  13
TORSDOF 4
ENDMDL
MODEL 7
REMARK VINA RESULT:    -6.082      4.607      7.587
REMARK INTER + INTRA:          -7.808
REMARK INTER:                  -7.326
REMARK INTRA:                  -0.482
REMARK UNBOUND:                -0.481
REMARK  Name = 
REMARK  4 active torsions:
REMARK  status: ('A' for Active; 'I' for Inactive)
REMARK    1  A    between atoms: O_1  and  C_2
REMARK    2  A    between atoms: C_5  and  C_6
REMARK    3  A    between atoms: C_6  and  C_7
REMARK    4  A    between atoms: C_11  and  C_12
REMARK                            x       y       z     vdW  Elec       q    Type
REMARK                         _______ _______ _______ _____ _____    ______ ____
ROOT
ATOM      1  C   UNL     1      48.905   6.305  15.789  0.00  0.00    +0.000 A 
ATOM      2  C   UNL     1      49.756   7.263  15.216  0.00  0.00    +0.000 A 
ATOM      3  C   UNL     1      49.607   7.657  13.888  0.00  0.00    +0.000 A 
ATOM      4  C   UNL     1      48.599   7.095  13.102  0.00  0.00    +0.000 A 
ATOM      5  C   UNL     1      47.698   6.158  13.637  0.00  0.00    +0.000 A 
ATOM      6  C   UNL     1      47.851   5.817  14.993  0.00  0.00    +0.000 A 
ENDROOT
BRANCH   5   7
ATOM      7  C   UNL     1      46.701   5.469  12.795  0.00  0.00    +0.000 A 
ATOM      8  C   UNL     1      46.176   4.224  13.168  0.00  0.00    +0.000 A 
ATOM      9  C   UNL     1      45.187   3.639  12.390  0.00  0.00    +0.000 A 
ATOM     10  N   UNL     1      44.681   4.199  11.274  0.00  0.00    +0.000 NA
ATOM     11  C   UNL     1      45.194   5.393  10.919  0.00  0.00    +0.000 A 
ATOM     12  C   UNL     1      46.193   6.050  11.627  0.00  0.00    +0.000 A 
ENDBRANCH   5   7
BRANCH   1  13
ATOM     13  C   UNL     1      49.208   5.702  17.162  0.00  0.00    +0.000 C 
ATOM     14  C   UNL     1      49.434   6.666  18.332  0.00  0.00    +0.000 C 
ATOM     15  C   UNL     1      48.131   5.951  18.223  0.00  0.00    +0.000 C 
BRANCH  13  19
ATOM     16  C   UNL     1      51.123   1.864  17.422  0.00  0.00    +0.000 A 
ATOM     17  C   UNL     1      51.831   2.983  17.820  0.00  0.00    +0.000 A 
ATOM     18  C   UNL     1      51.225   4.237  17.705  0.00  0.00    +0.000 A 
ATOM     19  C   UNL     1      49.921   4.348  17.204  0.00  0.00    +0.000 A 
ATOM     20  N   UNL     1      49.238   3.243  16.805  0.00  0.00    +0.000 NA
ATOM     21  C   UNL     1      49.846   2.038  16.920  0.00  0.00    +0.000 A 
BRANCH  16  22
ATOM     22  O   UNL     1      51.641   0.609  17.518  0.00  0.00    +0.000 OA
ATOM     23  H   UNL     1      51.666   0.210  16.632  0.00  0.00    +0.000 HD
ENDBRANCH  16  22
ENDBRANCH  13  19
ENDBRANCH   1  13
TORSDOF 4
ENDMDL
MODEL 8
REMARK VINA RESULT:    -6.032      3.605      7.412
REMARK INTER + INTRA:          -7.747
REMARK INTER:                  -7.339
REMARK INTRA:                  -0.408
REMARK UNBOUND:                -0.481
REMARK  Name = 
REMARK  4 active torsions:
REMARK  status: ('A' for Active; 'I' for Inactive)
REMARK    1  A    between atoms: O_1  and  C_2
REMARK    2  A    between atoms: C_5  and  C_6
REMARK    3  A    between atoms: C_6  and  C_7
REMARK    4  A    between atoms: C_11  and  C_12
REMARK                            x       y       z     vdW  Elec       q    Type
REMARK                         _______ _______ _______ _____ _____    ______ ____
ROOT
ATOM      1  C   UNL     1      47.037   7.622  12.427  0.00  0.00    +0.000 A 
ATOM      2  C   UNL     1      46.082   8.646  12.502  0.00  0.00    +0.000 A 
ATOM      3  C   UNL     1      44.826   8.505  11.915  0.00  0.00    +0.000 A 
ATOM      4  C   UNL     1      44.501   7.328  11.237  0.00  0.00    +0.000 A 
ATOM      5  C   UNL     1      45.408   6.257  11.164  0.00  0.00    +0.000 A 
ATOM      6  C   UNL     1      46.650   6.419  11.805  0.00  0.00    +0.000 A 
ENDROOT
BRANCH   5   7
ATOM      7  C   UNL     1      45.128   5.054  10.357  0.00  0.00    +0.000 A 
ATOM      8  C   UNL     1      45.612   4.934   9.047  0.00  0.00    +0.000 A 
ATOM      9  C   UNL     1      45.392   3.759   8.343  0.00  0.00    +0.000 A 
ATOM     10  N   UNL     1      44.731   2.697   8.843  0.00  0.00    +0.000 NA
ATOM     11  C   UNL     1      44.265   2.822  10.101  0.00  0.00    +0.000 A 
ATOM     12  C   UNL     1      44.425   3.962  10.879  0.00  0.00    +0.000 A 
ENDBRANCH   5   7
BRANCH   1  13
ATOM     13  C   UNL     1      48.485   7.860  12.860  0.00  0.00    +0.000 C 
ATOM     14  C   UNL     1      49.597   7.491  11.873  0.00  0.00    +0.000 C 
ATOM     15  C   UNL     1      49.231   8.925  12.049  0.00  0.00    +0.000 C 
BRANCH  13  19
ATOM     16  C   UNL     1      49.252   7.526  17.076  0.00  0.00    +0.000 A 
ATOM     17  C   UNL     1      48.587   8.648  16.613  0.00  0.00    +0.000 A 
ATOM     18  C   UNL     1      48.366   8.777  15.239  0.00  0.00    +0.000 A 
ATOM     19  C   UNL     1      48.803   7.781  14.356  0.00  0.00    +0.000 A 
ATOM     20  N   UNL     1      49.466   6.688  14.820  0.00  0.00    +0.000 NA
ATOM     21  C   UNL     1      49.674   6.585  16.155  0.00  0.00    +0.000 A 
BRANCH  16  22
ATOM     22  O   UNL     1      49.490   7.324  18.400  0.00  0.00    +0.000 OA
ATOM     23  H   UNL     1      49.147   6.450  18.652  0.00  0.00    +0.000 HD
ENDBRANCH  16  22
ENDBRANCH  13  19
ENDBRANCH   1  13
TORSDOF 4
ENDMDL
MODEL 9
REMARK VINA RESULT:    -6.001      2.809      4.240
REMARK INTER + INTRA:          -7.710
REMARK INTER:                  -7.344
REMARK INTRA:                  -0.366
REMARK UNBOUND:                -0.481
REMARK  Name = 
REMARK  4 active torsions:
REMARK  status: ('A' for Active; 'I' for Inactive)
REMARK    1  A    between atoms: O_1  and  C_2
REMARK    2  A    between atoms: C_5  and  C_6
REMARK    3  A    between atoms: C_6  and  C_7
REMARK    4  A    between atoms: C_11  and  C_12
REMARK                            x       y       z     vdW  Elec       q    Type
REMARK                         _______ _______ _______ _____ _____    ______ ____
ROOT
ATOM      1  C   UNL     1      46.582   6.081  12.503  0.00  0.00    +0.000 A 
ATOM      2  C   UNL     1      47.532   7.023  12.081  0.00  0.00    +0.000 A 
ATOM      3  C   UNL     1      48.630   7.345  12.877  0.00  0.00    +0.000 A 
ATOM      4  C   UNL     1      48.797   6.727  14.118  0.00  0.00    +0.000 A 
ATOM      5  C   UNL     1      47.894   5.750  14.571  0.00  0.00    +0.000 A 
ATOM      6  C   UNL     1      46.822   5.419  13.722  0.00  0.00    +0.000 A 
ENDROOT
BRANCH   5   7
ATOM      7  C   UNL     1      47.989   5.170  15.925  0.00  0.00    +0.000 A 
ATOM      8  C   UNL     1      47.293   4.001  16.262  0.00  0.00    +0.000 A 
ATOM      9  C   UNL     1      47.463   3.444  17.520  0.00  0.00    +0.000 A 
ATOM     10  N   UNL     1      48.272   3.959  18.466  0.00  0.00    +0.000 NA
ATOM     11  C   UNL     1      48.934   5.085  18.137  0.00  0.00    +0.000 A 
ATOM     12  C   UNL     1      48.820   5.722  16.908  0.00  0.00    +0.000 A 
ENDBRANCH   5   7
BRANCH   1  13
ATOM     13  C   UNL     1      45.264   5.898  11.747  0.00  0.00    +0.000 C 
ATOM     14  C   UNL     1      43.961   6.174  12.505  0.00  0.00    +0.000 C 
ATOM     15  C   UNL     1      44.463   7.187  11.534  0.00  0.00    +0.000 C 
BRANCH  13  19
ATOM     16  C   UNL     1      45.299   2.927   8.642  0.00  0.00    +0.000 A 
ATOM     17  C   UNL     1      45.768   4.195   8.348  0.00  0.00    +0.000 A 
ATOM     18  C   UNL     1      45.726   5.174   9.344  0.00  0.00    +0.000 A 
ATOM     19  C   UNL     1      45.228   4.866  10.617  0.00  0.00    +0.000 A 
ATOM     20  N   UNL     1      44.760   3.620  10.893  0.00  0.00    +0.000 NA
ATOM     21  C   UNL     1      44.804   2.688   9.911  0.00  0.00    +0.000 A 
BRANCH  16  22
ATOM     22  O   UNL     1      45.321   1.919   7.729  0.00  0.00    +0.000 OA
ATOM     23  H   UNL     1      46.124   2.002   7.187  0.00  0.00    +0.000 HD
ENDBRANCH  16  22
ENDBRANCH  13  19
ENDBRANCH   1  13
TORSDOF 4
ENDMDL
