MODEL 1
REMARK VINA RESULT:    -8.015      0.000      0.000
REMARK INTER + INTRA:         -13.602
REMARK INTER:                 -12.232
REMARK INTRA:                  -1.370
REMARK UNBOUND:                -1.370
REMARK  Name = 
REMARK  9 active torsions:
REMARK  status: ('A' for Active; 'I' for Inactive)
REMARK    1  A    between atoms: C_2  and  C_3
REMARK    2  A    between atoms: C_3  and  C_4
REMARK    3  A    between atoms: C_4  and  N_5
REMARK    4  A    between atoms: C_4  and  C_13
REMARK    5  A    between atoms: N_5  and  C_6
REMARK    6  A    between atoms: C_6  and  C_7
REMARK    7  A    between atoms: C_16  and  C_17
REMARK    8  A    between atoms: C_17  and  N_18
REMARK    9  A    between atoms: C_19  and  C_21
REMARK                            x       y       z     vdW  Elec       q    Type
REMARK                         _______ _______ _______ _____ _____    ______ ____
ROOT
ATOM      1  C   UNL     1      45.650   4.892  11.475  0.00  0.00    +0.000 A 
ATOM      2  C   UNL     1      46.141   6.098  10.955  0.00  0.00    +0.000 A 
ATOM      3  C   UNL     1      47.046   6.886  11.673  0.00  0.00    +0.000 A 
ATOM      4  C   UNL     1      47.539   6.462  12.908  0.00  0.00    +0.000 A 
ATOM      5  C   UNL     1      47.029   5.289  13.463  0.00  0.00    +0.000 A 
ATOM      6  C   UNL     1      46.063   4.548  12.778  0.00  0.00    +0.000 A 
ENDROOT
BRANCH   1   7
ATOM      7  C   UNL     1      44.695   3.973  10.689  0.00  0.00    +0.000 C 
BRANCH   7   8
ATOM      8  N   UNL     1      44.365   4.496   9.341  0.00  0.00    +0.000 NA
ATOM      9  H   UNL     1      44.976   5.285   9.131  0.00  0.00    +0.000 HD
BRANCH   8  10
ATOM     10  C   UNL     1      44.456   3.501   8.279  0.00  0.00    +0.000 C 
BRANCH  10  11
ATOM     11  C   UNL     1      45.831   2.849   8.121  0.00  0.00    +0.000 C 
ATOM     12  C   UNL     1      46.398   3.291   6.758  0.00  0.00    +0.000 C 
ATOM     13  C   UNL     1      47.660   2.528   6.407  0.00  0.00    +0.000 C 
ATOM     14  O   UNL     1      47.423   1.123   6.444  0.00  0.00    +0.000 OA
ATOM     15  C   UNL     1      47.044   0.677   7.744  0.00  0.00    +0.000 C 
ATOM     16  C   UNL     1      45.736   1.318   8.171  0.00  0.00    +0.000 C 
ENDBRANCH  10  11
ENDBRANCH   8  10
ENDBRANCH   7   8
BRANCH   7  17
ATOM     17  C   UNL     1      43.355   3.744  11.431  0.00  0.00    +0.000 C 
BRANCH  17  19
ATOM     18  N   UNL     1      42.052   5.984  11.846  0.00  0.00    +0.000 NA
ATOM     19  C   UNL     1      42.599   4.986  11.645  0.00  0.00    +0.000 C 
ENDBRANCH  17  19
ENDBRANCH   7  17
ENDBRANCH   1   7
BRANCH   4  20
ATOM     20  C   UNL     1      48.553   7.278  13.652  0.00  0.00    +0.000 C 
BRANCH  20  21
ATOM     21  N   UNL     1      48.267   7.291  15.061  0.00  0.00    +0.000 N 
ATOM     22  C   UNL     1      49.222   6.918  15.967  0.00  0.00    +0.000 C 
ATOM     23  O   UNL     1      50.372   6.653  15.628  0.00  0.00    +0.000 OA
ATOM     24  H   UNL     1      47.289   7.306  15.336  0.00  0.00    +0.000 HD
BRANCH  22  25
ATOM     25  C   UNL     1      48.816   6.890  17.375  0.00  0.00    +0.000 A 
ATOM     26  C   UNL     1      48.417   8.064  17.995  0.00  0.00    +0.000 A 
ATOM     27  S   UNL     1      48.003   7.862  19.637  0.00  0.00    +0.000 S 
ATOM     28  C   UNL     1      48.371   6.201  19.580  0.00  0.00    +0.000 A 
ATOM     29  N   UNL     1      48.270   5.424  20.694  0.00  0.00    +0.000 NA
ATOM     30  C   UNL     1      48.597   4.189  20.511  0.00  0.00    +0.000 A 
ATOM     31  N   UNL     1      49.001   3.656  19.315  0.00  0.00    +0.000 N 
ATOM     32  C   UNL     1      49.093   4.393  18.163  0.00  0.00    +0.000 A 
ATOM     33  O   UNL     1      49.406   3.873  17.094  0.00  0.00    +0.000 OA
ATOM     34  C   UNL     1      48.767   5.800  18.316  0.00  0.00    +0.000 A 
ATOM     35  H   UNL     1      49.222   2.673  19.235  0.00  0.00    +0.000 HD
ENDBRANCH  22  25
ENDBRANCH  20  21
ENDBRANCH   4  20
TORSDOF 9
ENDMDL
MODEL 2
REMARK VINA RESULT:    -7.909      1.258      1.873
REMARK INTER + INTRA:         -13.441
REMARK INTER:                 -12.014
REMARK INTRA:                  -1.427
REMARK UNBOUND:                -1.370
REMARK  Name = 
REMARK  9 active torsions:
REMARK  status: ('A' for Active; 'I' for Inactive)
REMARK    1  A    between atoms: C_2  and  C_3
REMARK    2  A    between atoms: C_3  and  C_4
REMARK    3  A    between atoms: C_4  and  N_5
REMARK    4  A    between atoms: C_4  and  C_13
REMARK    5  A    between atoms: N_5  and  C_6
REMARK    6  A    between atoms: C_6  and  C_7
REMARK    7  A    between atoms: C_16  and  C_17
REMARK    8  A    between atoms: C_17  and  N_18
REMARK    9  A    between atoms: C_19  and  C_21
REMARK                            x       y       z     vdW  Elec       q    Type
REMARK                         _______ _______ _______ _____ _____    ______ ____
ROOT
ATOM      1  C   UNL     1      45.781   5.046  11.560  0.00  0.00    +0.000 A 
ATOM      2  C   UNL     1      46.225   6.323  11.186  0.00  0.00    +0.000 A 
ATOM      3  C   UNL     1      46.996   7.107  12.050  0.00  0.00    +0.000 A 
ATOM      4  C   UNL     1      47.403   6.614  13.291  0.00  0.00    +0.000 A 
ATOM      5  C   UNL     1      46.934   5.366  13.700  0.00  0.00    +0.000 A 
ATOM      6  C   UNL     1      46.096   4.622  12.867  0.00  0.00    +0.000 A 
ENDROOT
BRANCH   1   7
ATOM      7  C   UNL     1      44.977   4.133  10.613  0.00  0.00    +0.000 C 
BRANCH   7   8
ATOM      8  N   UNL     1      44.741   4.743   9.281  0.00  0.00    +0.000 NA
ATOM      9  H   UNL     1      45.446   5.460   9.114  0.00  0.00    +0.000 HD
BRANCH   8  10
ATOM     10  C   UNL     1      44.738   3.784   8.183  0.00  0.00    +0.000 C 
BRANCH  10  11
ATOM     11  C   UNL     1      46.041   3.004   8.003  0.00  0.00    +0.000 C 
ATOM     12  C   UNL     1      46.576   3.319   6.592  0.00  0.00    +0.000 C 
ATOM     13  C   UNL     1      47.748   2.428   6.230  0.00  0.00    +0.000 C 
ATOM     14  O   UNL     1      47.392   1.054   6.360  0.00  0.00    +0.000 OA
ATOM     15  C   UNL     1      47.041   0.715   7.699  0.00  0.00    +0.000 C 
ATOM     16  C   UNL     1      45.816   1.493   8.146  0.00  0.00    +0.000 C 
ENDBRANCH  10  11
ENDBRANCH   8  10
ENDBRANCH   7   8
BRANCH   7  17
ATOM     17  C   UNL     1      43.592   3.758  11.195  0.00  0.00    +0.000 C 
BRANCH  17  19
ATOM     18  N   UNL     1      42.106   5.832  11.810  0.00  0.00    +0.000 NA
ATOM     19  C   UNL     1      42.763   4.932  11.508  0.00  0.00    +0.000 C 
ENDBRANCH  17  19
ENDBRANCH   7  17
ENDBRANCH   1   7
BRANCH   4  20
ATOM     20  C   UNL     1      48.278   7.432  14.193  0.00  0.00    +0.000 C 
BRANCH  20  21
ATOM     21  N   UNL     1      48.144   7.006  15.560  0.00  0.00    +0.000 N 
ATOM     22  C   UNL     1      49.216   6.484  16.233  0.00  0.00    +0.000 C 
ATOM     23  O   UNL     1      50.339   6.446  15.738  0.00  0.00    +0.000 OA
ATOM     24  H   UNL     1      47.203   6.843  15.906  0.00  0.00    +0.000 HD
BRANCH  22  25
ATOM     25  C   UNL     1      48.966   6.008  17.596  0.00  0.00    +0.000 A 
ATOM     26  C   UNL     1      49.224   4.684  17.917  0.00  0.00    +0.000 A 
ATOM     27  S   UNL     1      48.854   4.289  19.534  0.00  0.00    +0.000 S 
ATOM     28  C   UNL     1      48.310   5.871  19.852  0.00  0.00    +0.000 A 
ATOM     29  N   UNL     1      47.807   6.204  21.071  0.00  0.00    +0.000 NA
ATOM     30  C   UNL     1      47.415   7.430  21.167  0.00  0.00    +0.000 A 
ATOM     31  N   UNL     1      47.495   8.357  20.160  0.00  0.00    +0.000 N 
ATOM     32  C   UNL     1      48.018   8.074  18.925  0.00  0.00    +0.000 A 
ATOM     33  O   UNL     1      48.124   8.942  18.062  0.00  0.00    +0.000 OA
ATOM     34  C   UNL     1      48.445   6.697  18.750  0.00  0.00    +0.000 A 
ATOM     35  H   UNL     1      47.190   9.310  20.309  0.00  0.00    +0.000 HD
ENDBRANCH  22  25
ENDBRANCH  20  21
ENDBRANCH   4  20
TORSDOF 9
ENDMDL
MODEL 3
REMARK VINA RESULT:    -7.901      2.007      2.516
REMARK INTER + INTRA:         -13.428
REMARK INTER:                 -11.886
REMARK INTRA:                  -1.542
REMARK UNBOUND:                -1.370
REMARK  Name = 
REMARK  9 active torsions:
REMARK  status: ('A' for Active; 'I' for Inactive)
REMARK    1  A    between atoms: C_2  and  C_3
REMARK    2  A    between atoms: C_3  and  C_4
REMARK    3  A    between atoms: C_4  and  N_5
REMARK    4  A    between atoms: C_4  and  C_13
REMARK    5  A    between atoms: N_5  and  C_6
REMARK    6  A    between atoms: C_6  and  C_7
REMARK    7  A    between atoms: C_16  and  C_17
REMARK    8  A    between atoms: C_17  and  N_18
REMARK    9  A    between atoms: C_19  and  C_21
REMARK                            x       y       z     vdW  Elec       q    Type
REMARK                         _______ _______ _______ _____ _____    ______ ____
ROOT
ATOM      1  C   UNL     1      45.820   4.727  11.900  0.00  0.00    +0.000 A 
ATOM      2  C   UNL     1      46.212   4.133  13.108  0.00  0.00    +0.000 A 
ATOM      3  C   UNL     1      46.987   4.826  14.042  0.00  0.00    +0.000 A 
ATOM      4  C   UNL     1      47.343   6.158  13.829  0.00  0.00    +0.000 A 
ATOM      5  C   UNL     1      47.003   6.753  12.614  0.00  0.00    +0.000 A 
ATOM      6  C   UNL     1      46.300   6.029  11.649  0.00  0.00    +0.000 A 
ENDROOT
BRANCH   1   7
ATOM      7  C   UNL     1      44.921   4.013  10.872  0.00  0.00    +0.000 C 
BRANCH   7   8
ATOM      8  N   UNL     1      44.712   4.804   9.634  0.00  0.00    +0.000 NA
ATOM      9  H   UNL     1      45.404   5.553   9.598  0.00  0.00    +0.000 HD
BRANCH   8  10
ATOM     10  C   UNL     1      44.770   4.016   8.410  0.00  0.00    +0.000 C 
BRANCH  10  11
ATOM     11  C   UNL     1      45.991   3.103   8.286  0.00  0.00    +0.000 C 
ATOM     12  C   UNL     1      46.704   3.462   6.968  0.00  0.00    +0.000 C 
ATOM     13  C   UNL     1      47.803   2.469   6.642  0.00  0.00    +0.000 C 
ATOM     14  O   UNL     1      47.285   1.142   6.611  0.00  0.00    +0.000 OA
ATOM     15  C   UNL     1      46.758   0.742   7.874  0.00  0.00    +0.000 C 
ATOM     16  C   UNL     1      45.586   1.622   8.269  0.00  0.00    +0.000 C 
ENDBRANCH  10  11
ENDBRANCH   8  10
ENDBRANCH   7   8
BRANCH   7  17
ATOM     17  C   UNL     1      43.520   3.685  11.445  0.00  0.00    +0.000 C 
BRANCH  17  19
ATOM     18  N   UNL     1      42.068   5.844  11.785  0.00  0.00    +0.000 NA
ATOM     19  C   UNL     1      42.679   4.877  11.624  0.00  0.00    +0.000 C 
ENDBRANCH  17  19
ENDBRANCH   7  17
ENDBRANCH   1   7
BRANCH   4  20
ATOM     20  C   UNL     1      48.126   6.918  14.856  0.00  0.00    +0.000 C 
BRANCH  20  21
ATOM     21  N   UNL     1      49.134   6.084  15.454  0.00  0.00    +0.000 N 
ATOM     22  C   UNL     1      49.312   6.074  16.811  0.00  0.00    +0.000 C 
ATOM     23  O   UNL     1      48.570   6.693  17.569  0.00  0.00    +0.000 OA
ATOM     24  H   UNL     1      49.870   5.737  14.846  0.00  0.00    +0.000 HD
BRANCH  22  25
ATOM     25  C   UNL     1      50.412   5.251  17.322  0.00  0.00    +0.000 A 
ATOM     26  C   UNL     1      51.518   5.865  17.891  0.00  0.00    +0.000 A 
ATOM     27  S   UNL     1      52.715   4.766  18.409  0.00  0.00    +0.000 S 
ATOM     28  C   UNL     1      51.805   3.435  17.864  0.00  0.00    +0.000 A 
ATOM     29  N   UNL     1      52.290   2.167  17.970  0.00  0.00    +0.000 NA
ATOM     30  C   UNL     1      51.504   1.258  17.501  0.00  0.00    +0.000 A 
ATOM     31  N   UNL     1      50.272   1.497  16.949  0.00  0.00    +0.000 N 
ATOM     32  C   UNL     1      49.732   2.752  16.846  0.00  0.00    +0.000 A 
ATOM     33  O   UNL     1      48.603   2.928  16.396  0.00  0.00    +0.000 OA
ATOM     34  C   UNL     1      50.588   3.821  17.329  0.00  0.00    +0.000 A 
ATOM     35  H   UNL     1      49.696   0.734  16.620  0.00  0.00    +0.000 HD
ENDBRANCH  22  25
ENDBRANCH  20  21
ENDBRANCH   4  20
TORSDOF 9
ENDMDL
MODEL 4
REMARK VINA RESULT:    -7.448      1.323      1.652
REMARK INTER + INTRA:         -12.737
REMARK INTER:                 -11.543
REMARK INTRA:                  -1.194
REMARK UNBOUND:                -1.370
REMARK  Name = 
REMARK  9 active torsions:
REMARK  status: ('A' for Active; 'I' for Inactive)
REMARK    1  A    between atoms: C_2  and  C_3
REMARK    2  A    between atoms: C_3  and  C_4
REMARK    3  A    between atoms: C_4  and  N_5
REMARK    4  A    between atoms: C_4  and  C_13
REMARK    5  A    between atoms: N_5  and  C_6
REMARK    6  A    between atoms: C_6  and  C_7
REMARK    7  A    between atoms: C_16  and  C_17
REMARK    8  A    between atoms: C_17  and  N_18
REMARK    9  A    between atoms: C_19  and  C_21
REMARK                            x       y       z     vdW  Elec       q    Type
REMARK                         _______ _______ _______ _____ _____    ______ ____
ROOT
ATOM      1  C   UNL     1      45.684   5.814  11.523  0.00  0.00    +0.000 A 
ATOM      2  C   UNL     1      45.207   7.128  11.420  0.00  0.00    +0.000 A 
ATOM      3  C   UNL     1      45.776   8.170  12.160  0.00  0.00    +0.000 A 
ATOM      4  C   UNL     1      46.883   7.943  12.979  0.00  0.00    +0.000 A 
ATOM      5  C   UNL     1      47.344   6.635  13.131  0.00  0.00    +0.000 A 
ATOM      6  C   UNL     1      46.719   5.586  12.453  0.00  0.00    +0.000 A 
ENDROOT
BRANCH   1   7
ATOM      7  C   UNL     1      45.118   4.653  10.683  0.00  0.00    +0.000 C 
BRANCH   7   8
ATOM      8  N   UNL     1      45.341   4.827   9.227  0.00  0.00    +0.000 NA
ATOM      9  H   UNL     1      46.336   4.725   9.029  0.00  0.00    +0.000 HD
BRANCH   8  10
ATOM     10  C   UNL     1      44.573   3.909   8.395  0.00  0.00    +0.000 C 
BRANCH  10  11
ATOM     11  C   UNL     1      45.410   2.985   7.510  0.00  0.00    +0.000 C 
ATOM     12  C   UNL     1      45.817   1.769   8.366  0.00  0.00    +0.000 C 
ATOM     13  C   UNL     1      46.831   0.898   7.649  0.00  0.00    +0.000 C 
ATOM     14  O   UNL     1      47.966   1.668   7.260  0.00  0.00    +0.000 OA
ATOM     15  C   UNL     1      47.622   2.704   6.344  0.00  0.00    +0.000 C 
ATOM     16  C   UNL     1      46.667   3.694   6.986  0.00  0.00    +0.000 C 
ENDBRANCH  10  11
ENDBRANCH   8  10
ENDBRANCH   7   8
BRANCH   7  17
ATOM     17  C   UNL     1      43.595   4.465  10.892  0.00  0.00    +0.000 C 
BRANCH  17  19
ATOM     18  N   UNL     1      42.818   4.682  13.390  0.00  0.00    +0.000 NA
ATOM     19  C   UNL     1      43.190   4.576  12.301  0.00  0.00    +0.000 C 
ENDBRANCH  17  19
ENDBRANCH   7  17
ENDBRANCH   1   7
BRANCH   4  20
ATOM     20  C   UNL     1      47.529   9.070  13.727  0.00  0.00    +0.000 C 
BRANCH  20  21
ATOM     21  N   UNL     1      47.602   8.776  15.133  0.00  0.00    +0.000 N 
ATOM     22  C   UNL     1      48.805   8.796  15.785  0.00  0.00    +0.000 C 
ATOM     23  O   UNL     1      49.841   9.150  15.229  0.00  0.00    +0.000 OA
ATOM     24  H   UNL     1      46.811   8.293  15.548  0.00  0.00    +0.000 HD
BRANCH  22  25
ATOM     25  C   UNL     1      48.792   8.410  17.199  0.00  0.00    +0.000 A 
ATOM     26  C   UNL     1      48.884   9.389  18.176  0.00  0.00    +0.000 A 
ATOM     27  S   UNL     1      48.881   8.770  19.765  0.00  0.00    +0.000 S 
ATOM     28  C   UNL     1      48.783   7.168  19.197  0.00  0.00    +0.000 A 
ATOM     29  N   UNL     1      48.785   6.118  20.064  0.00  0.00    +0.000 NA
ATOM     30  C   UNL     1      48.725   4.961  19.496  0.00  0.00    +0.000 A 
ATOM     31  N   UNL     1      48.649   4.757  18.143  0.00  0.00    +0.000 N 
ATOM     32  C   UNL     1      48.618   5.783  17.234  0.00  0.00    +0.000 A 
ATOM     33  O   UNL     1      48.495   5.568  16.031  0.00  0.00    +0.000 OA
ATOM     34  C   UNL     1      48.716   7.110  17.816  0.00  0.00    +0.000 A 
ATOM     35  H   UNL     1      48.582   3.822  17.764  0.00  0.00    +0.000 HD
ENDBRANCH  22  25
ENDBRANCH  20  21
ENDBRANCH   4  20
TORSDOF 9
ENDMDL
MODEL 5
REMARK VINA RESULT:    -7.119      4.280      5.673
REMARK INTER + INTRA:         -12.234
REMARK INTER:                 -10.677
REMARK INTRA:                  -1.557
REMARK UNBOUND:                -1.370
REMARK  Name = 
REMARK  9 active torsions:
REMARK  status: ('A' for Active; 'I' for Inactive)
REMARK    1  A    between atoms: C_2  and  C_3
REMARK    2  A    between atoms: C_3  and  C_4
REMARK    3  A    between atoms: C_4  and  N_5
REMARK    4  A    between atoms: C_4  and  C_13
REMARK    5  A    between atoms: N_5  and  C_6
REMARK    6  A    between atoms: C_6  and  C_7
REMARK    7  A    between atoms: C_16  and  C_17
REMARK    8  A    between atoms: C_17  and  N_18
REMARK    9  A    between atoms: C_19  and  C_21
REMARK                            x       y       z     vdW  Elec       q    Type
REMARK                         _______ _______ _______ _____ _____    ______ ____
ROOT
ATOM      1  C   UNL     1      45.618   5.771  11.402  0.00  0.00    +0.000 A 
ATOM      2  C   UNL     1      45.065   7.052  11.259  0.00  0.00    +0.000 A 
ATOM      3  C   UNL     1      45.554   8.141  11.988  0.00  0.00    +0.000 A 
ATOM      4  C   UNL     1      46.653   7.998  12.836  0.00  0.00    +0.000 A 
ATOM      5  C   UNL     1      47.188   6.724  13.026  0.00  0.00    +0.000 A 
ATOM      6  C   UNL     1      46.643   5.625  12.359  0.00  0.00    +0.000 A 
ENDROOT
BRANCH   1   7
ATOM      7  C   UNL     1      45.141   4.561  10.575  0.00  0.00    +0.000 C 
BRANCH   7   8
ATOM      8  N   UNL     1      45.303   4.757   9.113  0.00  0.00    +0.000 NA
ATOM      9  H   UNL     1      46.294   4.707   8.879  0.00  0.00    +0.000 HD
BRANCH   8  10
ATOM     10  C   UNL     1      44.552   3.807   8.301  0.00  0.00    +0.000 C 
BRANCH  10  11
ATOM     11  C   UNL     1      45.407   2.874   7.442  0.00  0.00    +0.000 C 
ATOM     12  C   UNL     1      45.851   1.700   8.337  0.00  0.00    +0.000 C 
ATOM     13  C   UNL     1      46.881   0.830   7.644  0.00  0.00    +0.000 C 
ATOM     14  O   UNL     1      47.994   1.614   7.220  0.00  0.00    +0.000 OA
ATOM     15  C   UNL     1      47.618   2.609   6.271  0.00  0.00    +0.000 C 
ATOM     16  C   UNL     1      46.642   3.596   6.886  0.00  0.00    +0.000 C 
ENDBRANCH  10  11
ENDBRANCH   8  10
ENDBRANCH   7   8
BRANCH   7  17
ATOM     17  C   UNL     1      43.651   4.226  10.829  0.00  0.00    +0.000 C 
BRANCH  17  19
ATOM     18  N   UNL     1      43.365   2.368  12.660  0.00  0.00    +0.000 NA
ATOM     19  C   UNL     1      43.463   3.174  11.838  0.00  0.00    +0.000 C 
ENDBRANCH  17  19
ENDBRANCH   7  17
ENDBRANCH   1   7
BRANCH   4  20
ATOM     20  C   UNL     1      47.213   9.177  13.573  0.00  0.00    +0.000 C 
BRANCH  20  21
ATOM     21  N   UNL     1      48.556   9.461  13.143  0.00  0.00    +0.000 N 
ATOM     22  C   UNL     1      48.782  10.223  12.029  0.00  0.00    +0.000 C 
ATOM     23  O   UNL     1      47.868  10.766  11.416  0.00  0.00    +0.000 OA
ATOM     24  H   UNL     1      49.295   8.865  13.506  0.00  0.00    +0.000 HD
BRANCH  22  25
ATOM     25  C   UNL     1      50.180  10.395  11.626  0.00  0.00    +0.000 A 
ATOM     26  C   UNL     1      50.715  11.672  11.538  0.00  0.00    +0.000 A 
ATOM     27  S   UNL     1      52.343  11.696  11.030  0.00  0.00    +0.000 S 
ATOM     28  C   UNL     1      52.378  10.001  10.883  0.00  0.00    +0.000 A 
ATOM     29  N   UNL     1      53.494   9.361  10.439  0.00  0.00    +0.000 NA
ATOM     30  C   UNL     1      53.375   8.079  10.359  0.00  0.00    +0.000 A 
ATOM     31  N   UNL     1      52.248   7.376  10.698  0.00  0.00    +0.000 N 
ATOM     32  C   UNL     1      51.111   7.974  11.175  0.00  0.00    +0.000 A 
ATOM     33  O   UNL     1      50.136   7.310  11.520  0.00  0.00    +0.000 OA
ATOM     34  C   UNL     1      51.176   9.422  11.254  0.00  0.00    +0.000 A 
ATOM     35  H   UNL     1      52.229   6.367  10.633  0.00  0.00    +0.000 HD
ENDBRANCH  22  25
ENDBRANCH  20  21
ENDBRANCH   4  20
TORSDOF 9
ENDMDL
MODEL 6
REMARK VINA RESULT:    -6.995      2.881      8.904
REMARK INTER + INTRA:         -12.045
REMARK INTER:                  -9.926
REMARK INTRA:                  -2.118
REMARK UNBOUND:                -1.370
REMARK  Name = 
REMARK  9 active torsions:
REMARK  status: ('A' for Active; 'I' for Inactive)
REMARK    1  A    between atoms: C_2  and  C_3
REMARK    2  A    between atoms: C_3  and  C_4
REMARK    3  A    between atoms: C_4  and  N_5
REMARK    4  A    between atoms: C_4  and  C_13
REMARK    5  A    between atoms: N_5  and  C_6
REMARK    6  A    between atoms: C_6  and  C_7
REMARK    7  A    between atoms: C_16  and  C_17
REMARK    8  A    between atoms: C_17  and  N_18
REMARK    9  A    between atoms: C_19  and  C_21
REMARK                            x       y       z     vdW  Elec       q    Type
REMARK                         _______ _______ _______ _____ _____    ______ ____
ROOT
ATOM      1  C   UNL     1      48.797   7.863  16.353  0.00  0.00    +0.000 A 
ATOM      2  C   UNL     1      48.307   8.996  15.689  0.00  0.00    +0.000 A 
ATOM      3  C   UNL     1      48.020   8.970  14.321  0.00  0.00    +0.000 A 
ATOM      4  C   UNL     1      48.151   7.792  13.585  0.00  0.00    +0.000 A 
ATOM      5  C   UNL     1      48.681   6.666  14.217  0.00  0.00    +0.000 A 
ATOM      6  C   UNL     1      49.044   6.722  15.563  0.00  0.00    +0.000 A 
ENDROOT
BRANCH   1   7
ATOM      7  C   UNL     1      49.074   7.840  17.870  0.00  0.00    +0.000 C 
BRANCH   7   8
ATOM      8  N   UNL     1      48.097   7.017  18.625  0.00  0.00    +0.000 NA
ATOM      9  H   UNL     1      47.416   6.627  17.973  0.00  0.00    +0.000 HD
BRANCH   8  10
ATOM     10  C   UNL     1      48.703   5.946  19.407  0.00  0.00    +0.000 C 
BRANCH  10  11
ATOM     11  C   UNL     1      48.521   4.541  18.830  0.00  0.00    +0.000 C 
ATOM     12  C   UNL     1      49.843   4.151  18.141  0.00  0.00    +0.000 C 
ATOM     13  C   UNL     1      49.698   2.865  17.349  0.00  0.00    +0.000 C 
ATOM     14  O   UNL     1      48.631   2.973  16.410  0.00  0.00    +0.000 OA
ATOM     15  C   UNL     1      47.374   3.184  17.049  0.00  0.00    +0.000 C 
ATOM     16  C   UNL     1      47.373   4.496  17.812  0.00  0.00    +0.000 C 
ENDBRANCH  10  11
ENDBRANCH   8  10
ENDBRANCH   7   8
BRANCH   7  17
ATOM     17  C   UNL     1      49.054   9.257  18.493  0.00  0.00    +0.000 C 
BRANCH  17  19
ATOM     18  N   UNL     1      46.899   9.707  19.922  0.00  0.00    +0.000 NA
ATOM     19  C   UNL     1      47.833   9.527  19.267  0.00  0.00    +0.000 C 
ENDBRANCH  17  19
ENDBRANCH   7  17
ENDBRANCH   1   7
BRANCH   4  20
ATOM     20  C   UNL     1      47.788   7.749  12.131  0.00  0.00    +0.000 C 
BRANCH  20  21
ATOM     21  N   UNL     1      47.020   6.571  11.829  0.00  0.00    +0.000 N 
ATOM     22  C   UNL     1      45.685   6.518  12.123  0.00  0.00    +0.000 C 
ATOM     23  O   UNL     1      45.076   7.490  12.563  0.00  0.00    +0.000 OA
ATOM     24  H   UNL     1      47.535   5.711  11.664  0.00  0.00    +0.000 HD
BRANCH  22  25
ATOM     25  C   UNL     1      45.002   5.251  11.849  0.00  0.00    +0.000 A 
ATOM     26  C   UNL     1      44.302   4.617  12.864  0.00  0.00    +0.000 A 
ATOM     27  S   UNL     1      43.591   3.143  12.384  0.00  0.00    +0.000 S 
ATOM     28  C   UNL     1      44.220   3.290  10.809  0.00  0.00    +0.000 A 
ATOM     29  N   UNL     1      44.012   2.317   9.880  0.00  0.00    +0.000 NA
ATOM     30  C   UNL     1      44.560   2.551   8.736  0.00  0.00    +0.000 A 
ATOM     31  N   UNL     1      45.284   3.674   8.430  0.00  0.00    +0.000 N 
ATOM     32  C   UNL     1      45.497   4.690   9.324  0.00  0.00    +0.000 A 
ATOM     33  O   UNL     1      46.106   5.708   9.002  0.00  0.00    +0.000 OA
ATOM     34  C   UNL     1      44.930   4.466  10.642  0.00  0.00    +0.000 A 
ATOM     35  H   UNL     1      45.669   3.805   7.504  0.00  0.00    +0.000 HD
ENDBRANCH  22  25
ENDBRANCH  20  21
ENDBRANCH   4  20
TORSDOF 9
ENDMDL
MODEL 7
REMARK VINA RESULT:    -6.732      3.793      5.012
REMARK INTER + INTRA:         -11.645
REMARK INTER:                 -10.264
REMARK INTRA:                  -1.381
REMARK UNBOUND:                -1.370
REMARK  Name = 
REMARK  9 active torsions:
REMARK  status: ('A' for Active; 'I' for Inactive)
REMARK    1  A    between atoms: C_2  and  C_3
REMARK    2  A    between atoms: C_3  and  C_4
REMARK    3  A    between atoms: C_4  and  N_5
REMARK    4  A    between atoms: C_4  and  C_13
REMARK    5  A    between atoms: N_5  and  C_6
REMARK    6  A    between atoms: C_6  and  C_7
REMARK    7  A    between atoms: C_16  and  C_17
REMARK    8  A    between atoms: C_17  and  N_18
REMARK    9  A    between atoms: C_19  and  C_21
REMARK                            x       y       z     vdW  Elec       q    Type
REMARK                         _______ _______ _______ _____ _____    ______ ____
ROOT
ATOM      1  C   UNL     1      45.594   5.873  11.332  0.00  0.00    +0.000 A 
ATOM      2  C   UNL     1      46.763   5.713  12.091  0.00  0.00    +0.000 A 
ATOM      3  C   UNL     1      47.264   6.751  12.882  0.00  0.00    +0.000 A 
ATOM      4  C   UNL     1      46.579   7.962  12.990  0.00  0.00    +0.000 A 
ATOM      5  C   UNL     1      45.441   8.157  12.208  0.00  0.00    +0.000 A 
ATOM      6  C   UNL     1      44.991   7.146  11.357  0.00  0.00    +0.000 A 
ENDROOT
BRANCH   1   7
ATOM      7  C   UNL     1      44.983   4.733  10.493  0.00  0.00    +0.000 C 
BRANCH   7   8
ATOM      8  N   UNL     1      44.960   5.031   9.040  0.00  0.00    +0.000 NA
ATOM      9  H   UNL     1      45.819   5.520   8.787  0.00  0.00    +0.000 HD
BRANCH   8  10
ATOM     10  C   UNL     1      44.792   3.855   8.196  0.00  0.00    +0.000 C 
BRANCH  10  11
ATOM     11  C   UNL     1      46.074   3.069   7.918  0.00  0.00    +0.000 C 
ATOM     12  C   UNL     1      46.411   3.248   6.425  0.00  0.00    +0.000 C 
ATOM     13  C   UNL     1      47.542   2.334   5.996  0.00  0.00    +0.000 C 
ATOM     14  O   UNL     1      47.233   0.977   6.303  0.00  0.00    +0.000 OA
ATOM     15  C   UNL     1      47.070   0.768   7.704  0.00  0.00    +0.000 C 
ATOM     16  C   UNL     1      45.900   1.577   8.234  0.00  0.00    +0.000 C 
ENDBRANCH  10  11
ENDBRANCH   8  10
ENDBRANCH   7   8
BRANCH   7  17
ATOM     17  C   UNL     1      43.530   4.406  10.915  0.00  0.00    +0.000 C 
BRANCH  17  19
ATOM     18  N   UNL     1      43.385   2.445  12.653  0.00  0.00    +0.000 NA
ATOM     19  C   UNL     1      43.446   3.285  11.862  0.00  0.00    +0.000 C 
ENDBRANCH  17  19
ENDBRANCH   7  17
ENDBRANCH   1   7
BRANCH   4  20
ATOM     20  C   UNL     1      47.086   9.055  13.883  0.00  0.00    +0.000 C 
BRANCH  20  21
ATOM     21  N   UNL     1      48.443   9.400  13.552  0.00  0.00    +0.000 N 
ATOM     22  C   UNL     1      49.460   9.135  14.428  0.00  0.00    +0.000 C 
ATOM     23  O   UNL     1      49.275   8.518  15.473  0.00  0.00    +0.000 OA
ATOM     24  H   UNL     1      48.581  10.077  12.807  0.00  0.00    +0.000 HD
BRANCH  22  25
ATOM     25  C   UNL     1      50.797   9.590  14.036  0.00  0.00    +0.000 A 
ATOM     26  C   UNL     1      51.495  10.457  14.864  0.00  0.00    +0.000 A 
ATOM     27  S   UNL     1      53.020  10.909  14.249  0.00  0.00    +0.000 S 
ATOM     28  C   UNL     1      52.786   9.981  12.841  0.00  0.00    +0.000 A 
ATOM     29  N   UNL     1      53.723   9.962  11.854  0.00  0.00    +0.000 NA
ATOM     30  C   UNL     1      53.408   9.233  10.837  0.00  0.00    +0.000 A 
ATOM     31  N   UNL     1      52.250   8.508  10.724  0.00  0.00    +0.000 N 
ATOM     32  C   UNL     1      51.291   8.476  11.702  0.00  0.00    +0.000 A 
ATOM     33  O   UNL     1      50.289   7.774  11.593  0.00  0.00    +0.000 OA
ATOM     34  C   UNL     1      51.578   9.306  12.859  0.00  0.00    +0.000 A 
ATOM     35  H   UNL     1      52.075   7.938   9.907  0.00  0.00    +0.000 HD
ENDBRANCH  22  25
ENDBRANCH  20  21
ENDBRANCH   4  20
TORSDOF 9
ENDMDL
MODEL 8
REMARK VINA RESULT:    -6.551      3.894      9.557
REMARK INTER + INTRA:         -11.368
REMARK INTER:                  -9.567
REMARK INTRA:                  -1.801
REMARK UNBOUND:                -1.370
REMARK  Name = 
REMARK  9 active torsions:
REMARK  status: ('A' for Active; 'I' for Inactive)
REMARK    1  A    between atoms: C_2  and  C_3
REMARK    2  A    between atoms: C_3  and  C_4
REMARK    3  A    between atoms: C_4  and  N_5
REMARK    4  A    between atoms: C_4  and  C_13
REMARK    5  A    between atoms: N_5  and  C_6
REMARK    6  A    between atoms: C_6  and  C_7
REMARK    7  A    between atoms: C_16  and  C_17
REMARK    8  A    between atoms: C_17  and  N_18
REMARK    9  A    between atoms: C_19  and  C_21
REMARK                            x       y       z     vdW  Elec       q    Type
REMARK                         _______ _______ _______ _____ _____    ______ ____
ROOT
ATOM      1  C   UNL     1      51.235   4.256  17.828  0.00  0.00    +0.000 A 
ATOM      2  C   UNL     1      50.825   2.973  17.436  0.00  0.00    +0.000 A 
ATOM      3  C   UNL     1      49.485   2.691  17.156  0.00  0.00    +0.000 A 
ATOM      4  C   UNL     1      48.519   3.698  17.196  0.00  0.00    +0.000 A 
ATOM      5  C   UNL     1      48.897   4.969  17.629  0.00  0.00    +0.000 A 
ATOM      6  C   UNL     1      50.223   5.224  17.987  0.00  0.00    +0.000 A 
ENDROOT
BRANCH   1   7
ATOM      7  C   UNL     1      52.710   4.615  18.092  0.00  0.00    +0.000 C 
BRANCH   7   8
ATOM      8  N   UNL     1      53.293   5.483  17.039  0.00  0.00    +0.000 NA
ATOM      9  H   UNL     1      52.688   5.461  16.218  0.00  0.00    +0.000 HD
BRANCH   8  10
ATOM     10  C   UNL     1      53.510   6.861  17.459  0.00  0.00    +0.000 C 
BRANCH  10  11
ATOM     11  C   UNL     1      52.626   7.897  16.762  0.00  0.00    +0.000 C 
ATOM     12  C   UNL     1      51.638   8.440  17.812  0.00  0.00    +0.000 C 
ATOM     13  C   UNL     1      50.574   9.313  17.175  0.00  0.00    +0.000 C 
ATOM     14  O   UNL     1      49.899   8.603  16.139  0.00  0.00    +0.000 OA
ATOM     15  C   UNL     1      50.780   8.227  15.085  0.00  0.00    +0.000 C 
ATOM     16  C   UNL     1      51.849   7.277  15.592  0.00  0.00    +0.000 C 
ENDBRANCH  10  11
ENDBRANCH   8  10
ENDBRANCH   7   8
BRANCH   7  17
ATOM     17  C   UNL     1      53.611   3.360  18.200  0.00  0.00    +0.000 C 
BRANCH  17  19
ATOM     18  N   UNL     1      54.108   2.731  20.699  0.00  0.00    +0.000 NA
ATOM     19  C   UNL     1      53.919   2.993  19.590  0.00  0.00    +0.000 C 
ENDBRANCH  17  19
ENDBRANCH   7  17
ENDBRANCH   1   7
BRANCH   4  20
ATOM     20  C   UNL     1      47.092   3.408  16.840  0.00  0.00    +0.000 C 
BRANCH  20  21
ATOM     21  N   UNL     1      46.606   4.346  15.864  0.00  0.00    +0.000 N 
ATOM     22  C   UNL     1      46.817   4.131  14.529  0.00  0.00    +0.000 C 
ATOM     23  O   UNL     1      47.336   3.100  14.110  0.00  0.00    +0.000 OA
ATOM     24  H   UNL     1      46.367   5.277  16.194  0.00  0.00    +0.000 HD
BRANCH  22  25
ATOM     25  C   UNL     1      46.353   5.178  13.615  0.00  0.00    +0.000 A 
ATOM     26  C   UNL     1      47.151   6.289  13.384  0.00  0.00    +0.000 A 
ATOM     27  S   UNL     1      46.452   7.421  12.318  0.00  0.00    +0.000 S 
ATOM     28  C   UNL     1      45.046   6.477  12.151  0.00  0.00    +0.000 A 
ATOM     29  N   UNL     1      44.003   6.905  11.388  0.00  0.00    +0.000 NA
ATOM     30  C   UNL     1      42.996   6.098  11.365  0.00  0.00    +0.000 A 
ATOM     31  N   UNL     1      42.941   4.897  12.022  0.00  0.00    +0.000 N 
ATOM     32  C   UNL     1      43.975   4.413  12.779  0.00  0.00    +0.000 A 
ATOM     33  O   UNL     1      43.916   3.307  13.312  0.00  0.00    +0.000 OA
ATOM     34  C   UNL     1      45.125   5.296  12.868  0.00  0.00    +0.000 A 
ATOM     35  H   UNL     1      42.128   4.301  11.943  0.00  0.00    +0.000 HD
ENDBRANCH  22  25
ENDBRANCH  20  21
ENDBRANCH   4  20
TORSDOF 9
ENDMDL
MODEL 9
REMARK VINA RESULT:    -6.412      3.583      8.654
REMARK INTER + INTRA:         -11.155
REMARK INTER:                  -8.989
REMARK INTRA:                  -2.167
REMARK UNBOUND:                -1.370
REMARK  Name = 
REMARK  9 active torsions:
REMARK  status: ('A' for Active; 'I' for Inactive)
REMARK    1  A    between atoms: C_2  and  C_3
REMARK    2  A    between atoms: C_3  and  C_4
REMARK    3  A    between atoms: C_4  and  N_5
REMARK    4  A    between atoms: C_4  and  C_13
REMARK    5  A    between atoms: N_5  and  C_6
REMARK    6  A    between atoms: C_6  and  C_7
REMARK    7  A    between atoms: C_16  and  C_17
REMARK    8  A    between atoms: C_17  and  N_18
REMARK    9  A    between atoms: C_19  and  C_21
REMARK                            x       y       z     vdW  Elec       q    Type
REMARK                         _______ _______ _______ _____ _____    ______ ____
ROOT
ATOM      1  C   UNL     1      49.883   7.240  17.635  0.00  0.00    +0.000 A 
ATOM      2  C   UNL     1      50.206   6.720  16.373  0.00  0.00    +0.000 A 
ATOM      3  C   UNL     1      49.604   7.207  15.209  0.00  0.00    +0.000 A 
ATOM      4  C   UNL     1      48.707   8.275  15.261  0.00  0.00    +0.000 A 
ATOM      5  C   UNL     1      48.337   8.776  16.510  0.00  0.00    +0.000 A 
ATOM      6  C   UNL     1      48.879   8.230  17.675  0.00  0.00    +0.000 A 
ENDROOT
BRANCH   1   7
ATOM      7  C   UNL     1      50.566   6.765  18.932  0.00  0.00    +0.000 C 
BRANCH   7   8
ATOM      8  N   UNL     1      50.596   5.288  19.065  0.00  0.00    +0.000 NA
ATOM      9  H   UNL     1      51.398   5.022  19.636  0.00  0.00    +0.000 HD
BRANCH   8  10
ATOM     10  C   UNL     1      49.377   4.718  19.623  0.00  0.00    +0.000 C 
BRANCH  10  11
ATOM     11  C   UNL     1      48.635   3.749  18.701  0.00  0.00    +0.000 C 
ATOM     12  C   UNL     1      49.684   3.089  17.785  0.00  0.00    +0.000 C 
ATOM     13  C   UNL     1      49.029   2.274  16.687  0.00  0.00    +0.000 C 
ATOM     14  O   UNL     1      48.117   3.078  15.943  0.00  0.00    +0.000 OA
ATOM     15  C   UNL     1      47.053   3.571  16.753  0.00  0.00    +0.000 C 
ATOM     16  C   UNL     1      47.587   4.477  17.847  0.00  0.00    +0.000 C 
ENDBRANCH  10  11
ENDBRANCH   8  10
ENDBRANCH   7   8
BRANCH   7  17
ATOM     17  C   UNL     1      49.873   7.323  20.200  0.00  0.00    +0.000 C 
BRANCH  17  19
ATOM     18  N   UNL     1      51.197   9.292  21.322  0.00  0.00    +0.000 NA
ATOM     19  C   UNL     1      50.636   8.403  20.843  0.00  0.00    +0.000 C 
ENDBRANCH  17  19
ENDBRANCH   7  17
ENDBRANCH   1   7
BRANCH   4  20
ATOM     20  C   UNL     1      48.105   8.835  14.008  0.00  0.00    +0.000 C 
BRANCH  20  21
ATOM     21  N   UNL     1      46.932   8.095  13.627  0.00  0.00    +0.000 N 
ATOM     22  C   UNL     1      46.967   7.239  12.559  0.00  0.00    +0.000 C 
ATOM     23  O   UNL     1      48.007   6.999  11.952  0.00  0.00    +0.000 OA
ATOM     24  H   UNL     1      46.039   8.429  13.977  0.00  0.00    +0.000 HD
BRANCH  22  25
ATOM     25  C   UNL     1      45.705   6.587  12.200  0.00  0.00    +0.000 A 
ATOM     26  C   UNL     1      44.672   7.342  11.665  0.00  0.00    +0.000 A 
ATOM     27  S   UNL     1      43.268   6.436  11.329  0.00  0.00    +0.000 S 
ATOM     28  C   UNL     1      43.984   5.007  11.914  0.00  0.00    +0.000 A 
ATOM     29  N   UNL     1      43.287   3.839  11.949  0.00  0.00    +0.000 NA
ATOM     30  C   UNL     1      43.946   2.841  12.433  0.00  0.00    +0.000 A 
ATOM     31  N   UNL     1      45.244   2.900  12.871  0.00  0.00    +0.000 N 
ATOM     32  C   UNL     1      45.994   4.047  12.831  0.00  0.00    +0.000 A 
ATOM     33  O   UNL     1      47.171   4.054  13.180  0.00  0.00    +0.000 OA
ATOM     34  C   UNL     1      45.290   5.212  12.324  0.00  0.00    +0.000 A 
ATOM     35  H   UNL     1      45.710   2.073  13.219  0.00  0.00    +0.000 HD
ENDBRANCH  22  25
ENDBRANCH  20  21
ENDBRANCH   4  20
TORSDOF 9
ENDMDL
