MODEL 1
REMARK VINA RESULT:    -8.365      0.000      0.000
REMARK INTER + INTRA:         -13.397
REMARK INTER:                 -11.788
REMARK INTRA:                  -1.609
REMARK UNBOUND:                -1.609
REMARK  Name = 
REMARK  8 active torsions:
REMARK  status: ('A' for Active; 'I' for Inactive)
REMARK    1  A    between atoms: C_1  and  C_2
REMARK    2  A    between atoms: C_2  and  N_3
REMARK    3  A    between atoms: C_2  and  C_18
REMARK    4  A    between atoms: N_3  and  C_4
REMARK    5  A    between atoms: C_7  and  C_8
REMARK    6  A    between atoms: C_8  and  N_9
REMARK    7  A    between atoms: N_9  and  C_10
REMARK    8  A    between atoms: C_18  and  C_20
REMARK                            x       y       z     vdW  Elec       q    Type
REMARK                         _______ _______ _______ _____ _____    ______ ____
ROOT
ATOM      1  N   UNL     1      46.018   7.364  13.301  0.00  0.00    +0.000 N 
ATOM      2  H   UNL     1      45.797   7.288  14.295  0.00  0.00    +0.000 HD
ENDROOT
BRANCH   1   3
ATOM      3  C   UNL     1      45.501   6.337  12.506  0.00  0.00    +0.000 A 
ATOM      4  C   UNL     1      44.877   5.193  13.027  0.00  0.00    +0.000 A 
ATOM      5  C   UNL     1      44.541   4.113  12.216  0.00  0.00    +0.000 A 
ATOM      6  C   UNL     1      44.739   4.187  10.840  0.00  0.00    +0.000 A 
ATOM      7  C   UNL     1      45.294   5.357  10.300  0.00  0.00    +0.000 A 
ATOM      8  C   UNL     1      45.660   6.421  11.123  0.00  0.00    +0.000 A 
BRANCH   6   9
ATOM      9  C   UNL     1      44.439   3.029   9.935  0.00  0.00    +0.000 C 
BRANCH   9  10
ATOM     10  N   UNL     1      44.275   3.406   8.527  0.00  0.00    +0.000 NA
ATOM     11  H   UNL     1      44.477   4.403   8.444  0.00  0.00    +0.000 HD
BRANCH  10  12
ATOM     12  C   UNL     1      45.175   2.662   7.631  0.00  0.00    +0.000 C 
ATOM     13  C   UNL     1      45.877   1.549   8.430  0.00  0.00    +0.000 C 
ATOM     14  C   UNL     1      46.887   0.787   7.569  0.00  0.00    +0.000 C 
ATOM     15  C   UNL     1      47.893   1.734   6.924  0.00  0.00    +0.000 C 
ATOM     16  C   UNL     1      47.188   2.777   6.066  0.00  0.00    +0.000 C 
ATOM     17  C   UNL     1      46.191   3.564   6.901  0.00  0.00    +0.000 C 
ENDBRANCH  10  12
ENDBRANCH   9  10
ENDBRANCH   6   9
ENDBRANCH   1   3
BRANCH   1  19
ATOM     18  C   UNL     1      47.385   9.350  13.449  0.00  0.00    +0.000 C 
ATOM     19  C   UNL     1      47.375   7.887  13.005  0.00  0.00    +0.000 C 
BRANCH  19  20
ATOM     20  C   UNL     1      48.478   6.909  13.517  0.00  0.00    +0.000 C 
ATOM     21  O   UNL     1      49.337   6.507  12.720  0.00  0.00    +0.000 OA
BRANCH  20  22
ATOM     22  C   UNL     1      48.654   6.522  14.942  0.00  0.00    +0.000 A 
ATOM     23  C   UNL     1      49.392   7.371  15.762  0.00  0.00    +0.000 A 
ATOM     24  S   UNL     1      49.367   6.958  17.412  0.00  0.00    +0.000 S 
ATOM     25  C   UNL     1      48.375   5.617  17.105  0.00  0.00    +0.000 A 
ATOM     26  N   UNL     1      47.917   4.841  18.121  0.00  0.00    +0.000 NA
ATOM     27  C   UNL     1      47.138   3.881  17.752  0.00  0.00    +0.000 A 
ATOM     28  N   UNL     1      46.826   3.591  16.448  0.00  0.00    +0.000 N 
ATOM     29  C   UNL     1      47.514   4.175  15.421  0.00  0.00    +0.000 A 
ATOM     30  O   UNL     1      47.657   3.592  14.331  0.00  0.00    +0.000 OA
ATOM     31  C   UNL     1      48.172   5.420  15.743  0.00  0.00    +0.000 A 
ATOM     32  H   UNL     1      46.338   2.735  16.233  0.00  0.00    +0.000 HD
ENDBRANCH  20  22
ENDBRANCH  19  20
ENDBRANCH   1  19
TORSDOF 7
ENDMDL
MODEL 2
REMARK VINA RESULT:    -8.049      1.349      1.778
REMARK INTER + INTRA:         -12.951
REMARK INTER:                 -11.827
REMARK INTRA:                  -1.125
REMARK UNBOUND:                -1.609
REMARK  Name = 
REMARK  8 active torsions:
REMARK  status: ('A' for Active; 'I' for Inactive)
REMARK    1  A    between atoms: C_1  and  C_2
REMARK    2  A    between atoms: C_2  and  N_3
REMARK    3  A    between atoms: C_2  and  C_18
REMARK    4  A    between atoms: N_3  and  C_4
REMARK    5  A    between atoms: C_7  and  C_8
REMARK    6  A    between atoms: C_8  and  N_9
REMARK    7  A    between atoms: N_9  and  C_10
REMARK    8  A    between atoms: C_18  and  C_20
REMARK                            x       y       z     vdW  Elec       q    Type
REMARK                         _______ _______ _______ _____ _____    ______ ____
ROOT
ATOM      1  N   UNL     1      46.532   6.615  13.684  0.00  0.00    +0.000 N 
ATOM      2  H   UNL     1      46.143   6.738  14.620  0.00  0.00    +0.000 HD
ENDROOT
BRANCH   1   3
ATOM      3  C   UNL     1      45.824   5.730  12.867  0.00  0.00    +0.000 A 
ATOM      4  C   UNL     1      45.879   4.335  13.005  0.00  0.00    +0.000 A 
ATOM      5  C   UNL     1      45.307   3.487  12.061  0.00  0.00    +0.000 A 
ATOM      6  C   UNL     1      44.582   4.016  10.996  0.00  0.00    +0.000 A 
ATOM      7  C   UNL     1      44.459   5.409  10.891  0.00  0.00    +0.000 A 
ATOM      8  C   UNL     1      45.064   6.254  11.821  0.00  0.00    +0.000 A 
BRANCH   6   9
ATOM      9  C   UNL     1      43.992   3.142   9.929  0.00  0.00    +0.000 C 
BRANCH   9  10
ATOM     10  N   UNL     1      44.821   1.980   9.591  0.00  0.00    +0.000 NA
ATOM     11  H   UNL     1      44.223   1.288   9.138  0.00  0.00    +0.000 HD
BRANCH  10  12
ATOM     12  C   UNL     1      45.929   2.317   8.683  0.00  0.00    +0.000 C 
ATOM     13  C   UNL     1      45.465   3.413   7.705  0.00  0.00    +0.000 C 
ATOM     14  C   UNL     1      46.551   3.753   6.682  0.00  0.00    +0.000 C 
ATOM     15  C   UNL     1      47.028   2.507   5.943  0.00  0.00    +0.000 C 
ATOM     16  C   UNL     1      47.565   1.466   6.917  0.00  0.00    +0.000 C 
ATOM     17  C   UNL     1      46.500   1.094   7.936  0.00  0.00    +0.000 C 
ENDBRANCH  10  12
ENDBRANCH   9  10
ENDBRANCH   6   9
ENDBRANCH   1   3
BRANCH   1  19
ATOM     18  C   UNL     1      48.397   7.219  12.272  0.00  0.00    +0.000 C 
ATOM     19  C   UNL     1      48.016   6.617  13.625  0.00  0.00    +0.000 C 
BRANCH  19  20
ATOM     20  C   UNL     1      48.630   7.196  14.937  0.00  0.00    +0.000 C 
ATOM     21  O   UNL     1      48.438   8.389  15.211  0.00  0.00    +0.000 OA
BRANCH  20  22
ATOM     22  C   UNL     1      49.327   6.378  15.964  0.00  0.00    +0.000 A 
ATOM     23  C   UNL     1      50.675   6.635  16.197  0.00  0.00    +0.000 A 
ATOM     24  S   UNL     1      51.334   5.800  17.524  0.00  0.00    +0.000 S 
ATOM     25  C   UNL     1      49.848   5.046  17.843  0.00  0.00    +0.000 A 
ATOM     26  N   UNL     1      49.699   4.225  18.914  0.00  0.00    +0.000 NA
ATOM     27  C   UNL     1      48.506   3.753  19.063  0.00  0.00    +0.000 A 
ATOM     28  N   UNL     1      47.466   3.982  18.200  0.00  0.00    +0.000 N 
ATOM     29  C   UNL     1      47.688   4.554  16.977  0.00  0.00    +0.000 A 
ATOM     30  O   UNL     1      46.953   4.300  16.006  0.00  0.00    +0.000 OA
ATOM     31  C   UNL     1      48.898   5.337  16.869  0.00  0.00    +0.000 A 
ATOM     32  H   UNL     1      46.611   3.455  18.300  0.00  0.00    +0.000 HD
ENDBRANCH  20  22
ENDBRANCH  19  20
ENDBRANCH   1  19
TORSDOF 7
ENDMDL
MODEL 3
REMARK VINA RESULT:    -7.535      2.140      2.707
REMARK INTER + INTRA:         -12.227
REMARK INTER:                 -11.025
REMARK INTRA:                  -1.202
REMARK UNBOUND:                -1.609
REMARK  Name = 
REMARK  8 active torsions:
REMARK  status: ('A' for Active; 'I' for Inactive)
REMARK    1  A    between atoms: C_1  and  C_2
REMARK    2  A    between atoms: C_2  and  N_3
REMARK    3  A    between atoms: C_2  and  C_18
REMARK    4  A    between atoms: N_3  and  C_4
REMARK    5  A    between atoms: C_7  and  C_8
REMARK    6  A    between atoms: C_8  and  N_9
REMARK    7  A    between atoms: N_9  and  C_10
REMARK    8  A    between atoms: C_18  and  C_20
REMARK                            x       y       z     vdW  Elec       q    Type
REMARK                         _______ _______ _______ _____ _____    ______ ____
ROOT
ATOM      1  N   UNL     1      46.919   6.956  13.711  0.00  0.00    +0.000 N 
ATOM      2  H   UNL     1      46.328   7.109  14.530  0.00  0.00    +0.000 HD
ENDROOT
BRANCH   1   3
ATOM      3  C   UNL     1      46.390   6.077  12.763  0.00  0.00    +0.000 A 
ATOM      4  C   UNL     1      46.058   6.456  11.454  0.00  0.00    +0.000 A 
ATOM      5  C   UNL     1      45.366   5.601  10.601  0.00  0.00    +0.000 A 
ATOM      6  C   UNL     1      45.068   4.303  11.007  0.00  0.00    +0.000 A 
ATOM      7  C   UNL     1      45.462   3.889  12.287  0.00  0.00    +0.000 A 
ATOM      8  C   UNL     1      46.124   4.763  13.150  0.00  0.00    +0.000 A 
BRANCH   6   9
ATOM      9  C   UNL     1      44.281   3.365  10.140  0.00  0.00    +0.000 C 
BRANCH   9  10
ATOM     10  N   UNL     1      44.194   3.788   8.739  0.00  0.00    +0.000 NA
ATOM     11  H   UNL     1      44.512   4.756   8.682  0.00  0.00    +0.000 HD
BRANCH  10  12
ATOM     12  C   UNL     1      45.022   2.963   7.843  0.00  0.00    +0.000 C 
ATOM     13  C   UNL     1      45.596   1.776   8.638  0.00  0.00    +0.000 C 
ATOM     14  C   UNL     1      46.531   0.921   7.779  0.00  0.00    +0.000 C 
ATOM     15  C   UNL     1      47.637   1.765   7.153  0.00  0.00    +0.000 C 
ATOM     16  C   UNL     1      47.053   2.883   6.300  0.00  0.00    +0.000 C 
ATOM     17  C   UNL     1      46.134   3.761   7.133  0.00  0.00    +0.000 C 
ENDBRANCH  10  12
ENDBRANCH   9  10
ENDBRANCH   6   9
ENDBRANCH   1   3
BRANCH   1  19
ATOM     18  C   UNL     1      49.025   7.976  13.109  0.00  0.00    +0.000 C 
ATOM     19  C   UNL     1      48.375   6.914  13.997  0.00  0.00    +0.000 C 
BRANCH  19  20
ATOM     20  C   UNL     1      48.647   6.909  15.533  0.00  0.00    +0.000 C 
ATOM     21  O   UNL     1      48.590   7.981  16.153  0.00  0.00    +0.000 OA
BRANCH  20  22
ATOM     22  C   UNL     1      48.841   5.677  16.342  0.00  0.00    +0.000 A 
ATOM     23  C   UNL     1      47.757   4.817  16.492  0.00  0.00    +0.000 A 
ATOM     24  S   UNL     1      48.126   3.342  17.254  0.00  0.00    +0.000 S 
ATOM     25  C   UNL     1      49.753   3.790  17.429  0.00  0.00    +0.000 A 
ATOM     26  N   UNL     1      50.659   2.931  17.965  0.00  0.00    +0.000 NA
ATOM     27  C   UNL     1      51.867   3.383  18.000  0.00  0.00    +0.000 A 
ATOM     28  N   UNL     1      52.239   4.641  17.602  0.00  0.00    +0.000 N 
ATOM     29  C   UNL     1      51.295   5.598  17.348  0.00  0.00    +0.000 A 
ATOM     30  O   UNL     1      51.544   6.806  17.517  0.00  0.00    +0.000 OA
ATOM     31  C   UNL     1      49.978   5.100  17.022  0.00  0.00    +0.000 A 
ATOM     32  H   UNL     1      53.170   4.972  17.804  0.00  0.00    +0.000 HD
ENDBRANCH  20  22
ENDBRANCH  19  20
ENDBRANCH   1  19
TORSDOF 7
ENDMDL
MODEL 4
REMARK VINA RESULT:    -7.470      3.082      3.895
REMARK INTER + INTRA:         -12.136
REMARK INTER:                 -11.205
REMARK INTRA:                  -0.931
REMARK UNBOUND:                -1.609
REMARK  Name = 
REMARK  8 active torsions:
REMARK  status: ('A' for Active; 'I' for Inactive)
REMARK    1  A    between atoms: C_1  and  C_2
REMARK    2  A    between atoms: C_2  and  N_3
REMARK    3  A    between atoms: C_2  and  C_18
REMARK    4  A    between atoms: N_3  and  C_4
REMARK    5  A    between atoms: C_7  and  C_8
REMARK    6  A    between atoms: C_8  and  N_9
REMARK    7  A    between atoms: N_9  and  C_10
REMARK    8  A    between atoms: C_18  and  C_20
REMARK                            x       y       z     vdW  Elec       q    Type
REMARK                         _______ _______ _______ _____ _____    ______ ____
ROOT
ATOM      1  N   UNL     1      47.730   5.975  15.821  0.00  0.00    +0.000 N 
ATOM      2  H   UNL     1      47.156   5.361  16.401  0.00  0.00    +0.000 HD
ENDROOT
BRANCH   1   3
ATOM      3  C   UNL     1      47.410   5.965  14.462  0.00  0.00    +0.000 A 
ATOM      4  C   UNL     1      47.717   7.016  13.585  0.00  0.00    +0.000 A 
ATOM      5  C   UNL     1      47.223   7.048  12.284  0.00  0.00    +0.000 A 
ATOM      6  C   UNL     1      46.477   5.979  11.795  0.00  0.00    +0.000 A 
ATOM      7  C   UNL     1      46.227   4.888  12.641  0.00  0.00    +0.000 A 
ATOM      8  C   UNL     1      46.697   4.878  13.954  0.00  0.00    +0.000 A 
BRANCH   6   9
ATOM      9  C   UNL     1      45.882   5.994  10.418  0.00  0.00    +0.000 C 
BRANCH   9  10
ATOM     10  N   UNL     1      44.663   5.189  10.292  0.00  0.00    +0.000 NA
ATOM     11  H   UNL     1      43.893   5.819  10.063  0.00  0.00    +0.000 HD
BRANCH  10  12
ATOM     12  C   UNL     1      44.765   4.163   9.241  0.00  0.00    +0.000 C 
ATOM     13  C   UNL     1      44.851   2.773   9.899  0.00  0.00    +0.000 C 
ATOM     14  C   UNL     1      45.036   1.667   8.859  0.00  0.00    +0.000 C 
ATOM     15  C   UNL     1      46.242   1.940   7.966  0.00  0.00    +0.000 C 
ATOM     16  C   UNL     1      46.102   3.280   7.255  0.00  0.00    +0.000 C 
ATOM     17  C   UNL     1      45.935   4.402   8.266  0.00  0.00    +0.000 C 
ENDBRANCH  10  12
ENDBRANCH   9  10
ENDBRANCH   6   9
ENDBRANCH   1   3
BRANCH   1  19
ATOM     18  C   UNL     1      49.452   7.523  16.512  0.00  0.00    +0.000 C 
ATOM     19  C   UNL     1      49.157   6.050  16.223  0.00  0.00    +0.000 C 
BRANCH  19  20
ATOM     20  C   UNL     1      49.499   4.963  17.288  0.00  0.00    +0.000 C 
ATOM     21  O   UNL     1      48.579   4.473  17.958  0.00  0.00    +0.000 OA
BRANCH  20  22
ATOM     22  C   UNL     1      50.850   4.368  17.469  0.00  0.00    +0.000 A 
ATOM     23  C   UNL     1      51.907   5.225  17.758  0.00  0.00    +0.000 A 
ATOM     24  S   UNL     1      53.364   4.442  18.151  0.00  0.00    +0.000 S 
ATOM     25  C   UNL     1      52.651   2.917  17.942  0.00  0.00    +0.000 A 
ATOM     26  N   UNL     1      53.352   1.780  18.189  0.00  0.00    +0.000 NA
ATOM     27  C   UNL     1      52.676   0.691  18.032  0.00  0.00    +0.000 A 
ATOM     28  N   UNL     1      51.379   0.638  17.590  0.00  0.00    +0.000 N 
ATOM     29  C   UNL     1      50.777   1.747  17.062  0.00  0.00    +0.000 A 
ATOM     30  O   UNL     1      49.883   1.644  16.203  0.00  0.00    +0.000 OA
ATOM     31  C   UNL     1      51.352   3.013  17.457  0.00  0.00    +0.000 A 
ATOM     32  H   UNL     1      50.973  -0.252  17.346  0.00  0.00    +0.000 HD
ENDBRANCH  20  22
ENDBRANCH  19  20
ENDBRANCH   1  19
TORSDOF 7
ENDMDL
MODEL 5
REMARK VINA RESULT:    -7.423      2.029      2.723
REMARK INTER + INTRA:         -12.069
REMARK INTER:                 -10.758
REMARK INTRA:                  -1.311
REMARK UNBOUND:                -1.609
REMARK  Name = 
REMARK  8 active torsions:
REMARK  status: ('A' for Active; 'I' for Inactive)
REMARK    1  A    between atoms: C_1  and  C_2
REMARK    2  A    between atoms: C_2  and  N_3
REMARK    3  A    between atoms: C_2  and  C_18
REMARK    4  A    between atoms: N_3  and  C_4
REMARK    5  A    between atoms: C_7  and  C_8
REMARK    6  A    between atoms: C_8  and  N_9
REMARK    7  A    between atoms: N_9  and  C_10
REMARK    8  A    between atoms: C_18  and  C_20
REMARK                            x       y       z     vdW  Elec       q    Type
REMARK                         _______ _______ _______ _____ _____    ______ ____
ROOT
ATOM      1  N   UNL     1      47.280   7.122  14.110  0.00  0.00    +0.000 N 
ATOM      2  H   UNL     1      46.904   6.961  15.046  0.00  0.00    +0.000 HD
ENDROOT
BRANCH   1   3
ATOM      3  C   UNL     1      46.706   6.337  13.107  0.00  0.00    +0.000 A 
ATOM      4  C   UNL     1      46.372   6.827  11.835  0.00  0.00    +0.000 A 
ATOM      5  C   UNL     1      45.638   6.065  10.930  0.00  0.00    +0.000 A 
ATOM      6  C   UNL     1      45.297   4.751  11.241  0.00  0.00    +0.000 A 
ATOM      7  C   UNL     1      45.692   4.227  12.481  0.00  0.00    +0.000 A 
ATOM      8  C   UNL     1      46.396   5.008  13.396  0.00  0.00    +0.000 A 
BRANCH   6   9
ATOM      9  C   UNL     1      44.464   3.911  10.318  0.00  0.00    +0.000 C 
BRANCH   9  10
ATOM     10  N   UNL     1      44.499   4.356   8.921  0.00  0.00    +0.000 NA
ATOM     11  H   UNL     1      45.035   5.224   8.881  0.00  0.00    +0.000 HD
BRANCH  10  12
ATOM     12  C   UNL     1      45.125   3.370   8.026  0.00  0.00    +0.000 C 
ATOM     13  C   UNL     1      45.482   2.109   8.834  0.00  0.00    +0.000 C 
ATOM     14  C   UNL     1      46.208   1.073   7.973  0.00  0.00    +0.000 C 
ATOM     15  C   UNL     1      47.437   1.674   7.299  0.00  0.00    +0.000 C 
ATOM     16  C   UNL     1      47.055   2.868   6.433  0.00  0.00    +0.000 C 
ATOM     17  C   UNL     1      46.348   3.923   7.267  0.00  0.00    +0.000 C 
ENDBRANCH  10  12
ENDBRANCH   9  10
ENDBRANCH   6   9
ENDBRANCH   1   3
BRANCH   1  19
ATOM     18  C   UNL     1      48.898   8.870  13.705  0.00  0.00    +0.000 C 
ATOM     19  C   UNL     1      48.739   7.392  14.065  0.00  0.00    +0.000 C 
BRANCH  19  20
ATOM     20  C   UNL     1      49.456   6.814  15.324  0.00  0.00    +0.000 C 
ATOM     21  O   UNL     1      50.694   6.834  15.368  0.00  0.00    +0.000 OA
BRANCH  20  22
ATOM     22  C   UNL     1      48.751   6.356  16.550  0.00  0.00    +0.000 A 
ATOM     23  C   UNL     1      48.494   4.995  16.684  0.00  0.00    +0.000 A 
ATOM     24  S   UNL     1      47.874   4.539  18.201  0.00  0.00    +0.000 S 
ATOM     25  C   UNL     1      47.910   6.145  18.746  0.00  0.00    +0.000 A 
ATOM     26  N   UNL     1      47.557   6.456  20.020  0.00  0.00    +0.000 NA
ATOM     27  C   UNL     1      47.672   7.708  20.315  0.00  0.00    +0.000 A 
ATOM     28  N   UNL     1      48.050   8.684  19.430  0.00  0.00    +0.000 N 
ATOM     29  C   UNL     1      48.114   8.421  18.089  0.00  0.00    +0.000 A 
ATOM     30  O   UNL     1      47.917   9.318  17.249  0.00  0.00    +0.000 OA
ATOM     31  C   UNL     1      48.274   7.029  17.736  0.00  0.00    +0.000 A 
ATOM     32  H   UNL     1      47.966   9.654  19.694  0.00  0.00    +0.000 HD
ENDBRANCH  20  22
ENDBRANCH  19  20
ENDBRANCH   1  19
TORSDOF 7
ENDMDL
MODEL 6
REMARK VINA RESULT:    -7.360      1.532      1.888
REMARK INTER + INTRA:         -11.981
REMARK INTER:                 -10.662
REMARK INTRA:                  -1.319
REMARK UNBOUND:                -1.609
REMARK  Name = 
REMARK  8 active torsions:
REMARK  status: ('A' for Active; 'I' for Inactive)
REMARK    1  A    between atoms: C_1  and  C_2
REMARK    2  A    between atoms: C_2  and  N_3
REMARK    3  A    between atoms: C_2  and  C_18
REMARK    4  A    between atoms: N_3  and  C_4
REMARK    5  A    between atoms: C_7  and  C_8
REMARK    6  A    between atoms: C_8  and  N_9
REMARK    7  A    between atoms: N_9  and  C_10
REMARK    8  A    between atoms: C_18  and  C_20
REMARK                            x       y       z     vdW  Elec       q    Type
REMARK                         _______ _______ _______ _____ _____    ______ ____
ROOT
ATOM      1  N   UNL     1      47.802   7.449  13.835  0.00  0.00    +0.000 N 
ATOM      2  H   UNL     1      47.571   7.728  14.790  0.00  0.00    +0.000 HD
ENDROOT
BRANCH   1   3
ATOM      3  C   UNL     1      46.838   6.658  13.207  0.00  0.00    +0.000 A 
ATOM      4  C   UNL     1      46.536   5.345  13.601  0.00  0.00    +0.000 A 
ATOM      5  C   UNL     1      45.704   4.529  12.840  0.00  0.00    +0.000 A 
ATOM      6  C   UNL     1      45.077   5.038  11.706  0.00  0.00    +0.000 A 
ATOM      7  C   UNL     1      45.313   6.372  11.345  0.00  0.00    +0.000 A 
ATOM      8  C   UNL     1      46.176   7.174  12.093  0.00  0.00    +0.000 A 
BRANCH   6   9
ATOM      9  C   UNL     1      44.213   4.180  10.828  0.00  0.00    +0.000 C 
BRANCH   9  10
ATOM     10  N   UNL     1      44.160   4.628   9.433  0.00  0.00    +0.000 NA
ATOM     11  H   UNL     1      44.707   5.486   9.357  0.00  0.00    +0.000 HD
BRANCH  10  12
ATOM     12  C   UNL     1      44.706   3.633   8.495  0.00  0.00    +0.000 C 
ATOM     13  C   UNL     1      45.007   2.331   9.260  0.00  0.00    +0.000 C 
ATOM     14  C   UNL     1      45.650   1.279   8.353  0.00  0.00    +0.000 C 
ATOM     15  C   UNL     1      46.896   1.827   7.665  0.00  0.00    +0.000 C 
ATOM     16  C   UNL     1      46.566   3.065   6.843  0.00  0.00    +0.000 C 
ATOM     17  C   UNL     1      45.942   4.136   7.723  0.00  0.00    +0.000 C 
ENDBRANCH  10  12
ENDBRANCH   9  10
ENDBRANCH   6   9
ENDBRANCH   1   3
BRANCH   1  19
ATOM     18  C   UNL     1      49.586   7.702  12.225  0.00  0.00    +0.000 C 
ATOM     19  C   UNL     1      49.238   7.149  13.608  0.00  0.00    +0.000 C 
BRANCH  19  20
ATOM     20  C   UNL     1      50.099   7.548  14.846  0.00  0.00    +0.000 C 
ATOM     21  O   UNL     1      51.264   7.929  14.666  0.00  0.00    +0.000 OA
BRANCH  20  22
ATOM     22  C   UNL     1      49.575   7.631  16.235  0.00  0.00    +0.000 A 
ATOM     23  C   UNL     1      49.830   8.792  16.959  0.00  0.00    +0.000 A 
ATOM     24  S   UNL     1      49.022   8.884  18.453  0.00  0.00    +0.000 S 
ATOM     25  C   UNL     1      48.300   7.370  18.205  0.00  0.00    +0.000 A 
ATOM     26  N   UNL     1      47.414   6.864  19.102  0.00  0.00    +0.000 NA
ATOM     27  C   UNL     1      46.909   5.724  18.769  0.00  0.00    +0.000 A 
ATOM     28  N   UNL     1      47.257   5.017  17.647  0.00  0.00    +0.000 N 
ATOM     29  C   UNL     1      48.351   5.376  16.909  0.00  0.00    +0.000 A 
ATOM     30  O   UNL     1      48.998   4.530  16.267  0.00  0.00    +0.000 OA
ATOM     31  C   UNL     1      48.772   6.751  17.052  0.00  0.00    +0.000 A 
ATOM     32  H   UNL     1      46.933   4.068  17.538  0.00  0.00    +0.000 HD
ENDBRANCH  20  22
ENDBRANCH  19  20
ENDBRANCH   1  19
TORSDOF 7
ENDMDL
MODEL 7
REMARK VINA RESULT:    -6.723      3.089      8.800
REMARK INTER + INTRA:         -11.083
REMARK INTER:                  -9.608
REMARK INTRA:                  -1.475
REMARK UNBOUND:                -1.609
REMARK  Name = 
REMARK  8 active torsions:
REMARK  status: ('A' for Active; 'I' for Inactive)
REMARK    1  A    between atoms: C_1  and  C_2
REMARK    2  A    between atoms: C_2  and  N_3
REMARK    3  A    between atoms: C_2  and  C_18
REMARK    4  A    between atoms: N_3  and  C_4
REMARK    5  A    between atoms: C_7  and  C_8
REMARK    6  A    between atoms: C_8  and  N_9
REMARK    7  A    between atoms: N_9  and  C_10
REMARK    8  A    between atoms: C_18  and  C_20
REMARK                            x       y       z     vdW  Elec       q    Type
REMARK                         _______ _______ _______ _____ _____    ______ ____
ROOT
ATOM      1  N   UNL     1      46.485   6.516  12.298  0.00  0.00    +0.000 N 
ATOM      2  H   UNL     1      46.571   5.899  11.490  0.00  0.00    +0.000 HD
ENDROOT
BRANCH   1   3
ATOM      3  C   UNL     1      47.050   6.021  13.476  0.00  0.00    +0.000 A 
ATOM      4  C   UNL     1      46.685   4.797  14.055  0.00  0.00    +0.000 A 
ATOM      5  C   UNL     1      47.136   4.425  15.319  0.00  0.00    +0.000 A 
ATOM      6  C   UNL     1      48.042   5.232  16.001  0.00  0.00    +0.000 A 
ATOM      7  C   UNL     1      48.472   6.423  15.397  0.00  0.00    +0.000 A 
ATOM      8  C   UNL     1      47.989   6.806  14.146  0.00  0.00    +0.000 A 
BRANCH   6   9
ATOM      9  C   UNL     1      48.515   4.897  17.384  0.00  0.00    +0.000 C 
BRANCH   9  10
ATOM     10  N   UNL     1      47.533   5.191  18.432  0.00  0.00    +0.000 NA
ATOM     11  H   UNL     1      47.395   4.341  18.981  0.00  0.00    +0.000 HD
BRANCH  10  12
ATOM     12  C   UNL     1      47.967   6.272  19.332  0.00  0.00    +0.000 C 
ATOM     13  C   UNL     1      47.620   5.891  20.783  0.00  0.00    +0.000 C 
ATOM     14  C   UNL     1      47.978   7.012  21.762  0.00  0.00    +0.000 C 
ATOM     15  C   UNL     1      47.329   8.331  21.358  0.00  0.00    +0.000 C 
ATOM     16  C   UNL     1      47.750   8.738  19.951  0.00  0.00    +0.000 C 
ATOM     17  C   UNL     1      47.389   7.650  18.953  0.00  0.00    +0.000 C 
ENDBRANCH  10  12
ENDBRANCH   9  10
ENDBRANCH   6   9
ENDBRANCH   1   3
BRANCH   1  19
ATOM     18  C   UNL     1      45.509   8.697  11.941  0.00  0.00    +0.000 C 
ATOM     19  C   UNL     1      45.204   7.263  12.375  0.00  0.00    +0.000 C 
BRANCH  19  20
ATOM     20  C   UNL     1      44.049   6.470  11.690  0.00  0.00    +0.000 C 
ATOM     21  O   UNL     1      43.049   7.088  11.299  0.00  0.00    +0.000 OA
BRANCH  20  22
ATOM     22  C   UNL     1      44.118   5.025  11.346  0.00  0.00    +0.000 A 
ATOM     23  C   UNL     1      43.563   4.114  12.240  0.00  0.00    +0.000 A 
ATOM     24  S   UNL     1      43.503   2.513  11.672  0.00  0.00    +0.000 S 
ATOM     25  C   UNL     1      44.228   2.960  10.205  0.00  0.00    +0.000 A 
ATOM     26  N   UNL     1      44.416   2.051   9.214  0.00  0.00    +0.000 NA
ATOM     27  C   UNL     1      44.938   2.534   8.137  0.00  0.00    +0.000 A 
ATOM     28  N   UNL     1      45.344   3.835   7.986  0.00  0.00    +0.000 N 
ATOM     29  C   UNL     1      45.431   4.668   9.068  0.00  0.00    +0.000 A 
ATOM     30  O   UNL     1      46.253   5.602   9.095  0.00  0.00    +0.000 OA
ATOM     31  C   UNL     1      44.622   4.294  10.206  0.00  0.00    +0.000 A 
ATOM     32  H   UNL     1      45.882   4.097   7.174  0.00  0.00    +0.000 HD
ENDBRANCH  20  22
ENDBRANCH  19  20
ENDBRANCH   1  19
TORSDOF 7
ENDMDL
MODEL 8
REMARK VINA RESULT:    -6.708      3.197      5.091
REMARK INTER + INTRA:         -11.062
REMARK INTER:                  -9.333
REMARK INTRA:                  -1.729
REMARK UNBOUND:                -1.609
REMARK  Name = 
REMARK  8 active torsions:
REMARK  status: ('A' for Active; 'I' for Inactive)
REMARK    1  A    between atoms: C_1  and  C_2
REMARK    2  A    between atoms: C_2  and  N_3
REMARK    3  A    between atoms: C_2  and  C_18
REMARK    4  A    between atoms: N_3  and  C_4
REMARK    5  A    between atoms: C_7  and  C_8
REMARK    6  A    between atoms: C_8  and  N_9
REMARK    7  A    between atoms: N_9  and  C_10
REMARK    8  A    between atoms: C_18  and  C_20
REMARK                            x       y       z     vdW  Elec       q    Type
REMARK                         _______ _______ _______ _____ _____    ______ ____
ROOT
ATOM      1  N   UNL     1      48.875   6.971  13.328  0.00  0.00    +0.000 N 
ATOM      2  H   UNL     1      49.443   7.350  12.569  0.00  0.00    +0.000 HD
ENDROOT
BRANCH   1   3
ATOM      3  C   UNL     1      47.654   6.424  12.928  0.00  0.00    +0.000 A 
ATOM      4  C   UNL     1      47.018   5.371  13.603  0.00  0.00    +0.000 A 
ATOM      5  C   UNL     1      45.900   4.734  13.072  0.00  0.00    +0.000 A 
ATOM      6  C   UNL     1      45.331   5.197  11.889  0.00  0.00    +0.000 A 
ATOM      7  C   UNL     1      45.915   6.298  11.244  0.00  0.00    +0.000 A 
ATOM      8  C   UNL     1      47.056   6.908  11.764  0.00  0.00    +0.000 A 
BRANCH   6   9
ATOM      9  C   UNL     1      44.157   4.511  11.254  0.00  0.00    +0.000 C 
BRANCH   9  10
ATOM     10  N   UNL     1      43.925   4.904   9.861  0.00  0.00    +0.000 NA
ATOM     11  H   UNL     1      44.440   5.769   9.688  0.00  0.00    +0.000 HD
BRANCH  10  12
ATOM     12  C   UNL     1      44.375   3.884   8.900  0.00  0.00    +0.000 C 
ATOM     13  C   UNL     1      44.540   2.539   9.632  0.00  0.00    +0.000 C 
ATOM     14  C   UNL     1      45.081   1.452   8.700  0.00  0.00    +0.000 C 
ATOM     15  C   UNL     1      46.380   1.890   8.031  0.00  0.00    +0.000 C 
ATOM     16  C   UNL     1      46.180   3.176   7.240  0.00  0.00    +0.000 C 
ATOM     17  C   UNL     1      45.660   4.281   8.145  0.00  0.00    +0.000 C 
ENDBRANCH  10  12
ENDBRANCH   9  10
ENDBRANCH   6   9
ENDBRANCH   1   3
BRANCH   1  19
ATOM     18  C   UNL     1      50.136   7.207  15.375  0.00  0.00    +0.000 C 
ATOM     19  C   UNL     1      48.936   7.744  14.594  0.00  0.00    +0.000 C 
BRANCH  19  20
ATOM     20  C   UNL     1      48.803   9.274  14.324  0.00  0.00    +0.000 C 
ATOM     21  O   UNL     1      48.770  10.051  15.290  0.00  0.00    +0.000 OA
BRANCH  20  22
ATOM     22  C   UNL     1      48.846   9.891  12.972  0.00  0.00    +0.000 A 
ATOM     23  C   UNL     1      47.698  10.527  12.508  0.00  0.00    +0.000 A 
ATOM     24  S   UNL     1      47.903  11.377  11.049  0.00  0.00    +0.000 S 
ATOM     25  C   UNL     1      49.536  10.926  10.965  0.00  0.00    +0.000 A 
ATOM     26  N   UNL     1      50.334  11.381   9.964  0.00  0.00    +0.000 NA
ATOM     27  C   UNL     1      51.563  10.995  10.044  0.00  0.00    +0.000 A 
ATOM     28  N   UNL     1      52.050  10.145  11.003  0.00  0.00    +0.000 N 
ATOM     29  C   UNL     1      51.197   9.456  11.822  0.00  0.00    +0.000 A 
ATOM     30  O   UNL     1      51.511   8.347  12.289  0.00  0.00    +0.000 OA
ATOM     31  C   UNL     1      49.882  10.034  11.974  0.00  0.00    +0.000 A 
ATOM     32  H   UNL     1      52.982   9.769  10.908  0.00  0.00    +0.000 HD
ENDBRANCH  20  22
ENDBRANCH  19  20
ENDBRANCH   1  19
TORSDOF 7
ENDMDL
MODEL 9
REMARK VINA RESULT:    -6.590      2.158      2.947
REMARK INTER + INTRA:         -10.895
REMARK INTER:                  -9.740
REMARK INTRA:                  -1.155
REMARK UNBOUND:                -1.609
REMARK  Name = 
REMARK  8 active torsions:
REMARK  status: ('A' for Active; 'I' for Inactive)
REMARK    1  A    between atoms: C_1  and  C_2
REMARK    2  A    between atoms: C_2  and  N_3
REMARK    3  A    between atoms: C_2  and  C_18
REMARK    4  A    between atoms: N_3  and  C_4
REMARK    5  A    between atoms: C_7  and  C_8
REMARK    6  A    between atoms: C_8  and  N_9
REMARK    7  A    between atoms: N_9  and  C_10
REMARK    8  A    between atoms: C_18  and  C_20
REMARK                            x       y       z     vdW  Elec       q    Type
REMARK                         _______ _______ _______ _____ _____    ______ ____
ROOT
ATOM      1  N   UNL     1      46.810   8.076  13.665  0.00  0.00    +0.000 N 
ATOM      2  H   UNL     1      46.309   8.234  14.540  0.00  0.00    +0.000 HD
ENDROOT
BRANCH   1   3
ATOM      3  C   UNL     1      46.157   7.237  12.759  0.00  0.00    +0.000 A 
ATOM      4  C   UNL     1      44.869   6.723  12.970  0.00  0.00    +0.000 A 
ATOM      5  C   UNL     1      44.328   5.748  12.135  0.00  0.00    +0.000 A 
ATOM      6  C   UNL     1      45.030   5.326  11.010  0.00  0.00    +0.000 A 
ATOM      7  C   UNL     1      46.288   5.889  10.750  0.00  0.00    +0.000 A 
ATOM      8  C   UNL     1      46.839   6.839  11.609  0.00  0.00    +0.000 A 
BRANCH   6   9
ATOM      9  C   UNL     1      44.509   4.242  10.113  0.00  0.00    +0.000 C 
BRANCH   9  10
ATOM     10  N   UNL     1      44.636   4.546   8.684  0.00  0.00    +0.000 NA
ATOM     11  H   UNL     1      45.269   5.342   8.587  0.00  0.00    +0.000 HD
BRANCH  10  12
ATOM     12  C   UNL     1      45.173   3.416   7.908  0.00  0.00    +0.000 C 
ATOM     13  C   UNL     1      45.534   2.269   8.870  0.00  0.00    +0.000 C 
ATOM     14  C   UNL     1      46.171   1.091   8.130  0.00  0.00    +0.000 C 
ATOM     15  C   UNL     1      47.377   1.536   7.310  0.00  0.00    +0.000 C 
ATOM     16  C   UNL     1      46.986   2.610   6.303  0.00  0.00    +0.000 C 
ATOM     17  C   UNL     1      46.367   3.803   7.012  0.00  0.00    +0.000 C 
ENDBRANCH  10  12
ENDBRANCH   9  10
ENDBRANCH   6   9
ENDBRANCH   1   3
BRANCH   1  19
ATOM     18  C   UNL     1      48.806   9.403  13.970  0.00  0.00    +0.000 C 
ATOM     19  C   UNL     1      48.284   7.975  13.804  0.00  0.00    +0.000 C 
BRANCH  19  20
ATOM     20  C   UNL     1      48.677   6.876  14.840  0.00  0.00    +0.000 C 
ATOM     21  O   UNL     1      48.431   5.691  14.575  0.00  0.00    +0.000 OA
BRANCH  20  22
ATOM     22  C   UNL     1      49.453   7.138  16.081  0.00  0.00    +0.000 A 
ATOM     23  C   UNL     1      48.750   7.271  17.274  0.00  0.00    +0.000 A 
ATOM     24  S   UNL     1      49.727   7.361  18.663  0.00  0.00    +0.000 S 
ATOM     25  C   UNL     1      51.138   7.236  17.731  0.00  0.00    +0.000 A 
ATOM     26  N   UNL     1      52.361   7.187  18.321  0.00  0.00    +0.000 NA
ATOM     27  C   UNL     1      53.346   7.048  17.498  0.00  0.00    +0.000 A 
ATOM     28  N   UNL     1      53.219   7.016  16.133  0.00  0.00    +0.000 N 
ATOM     29  C   UNL     1      52.039   7.363  15.534  0.00  0.00    +0.000 A 
ATOM     30  O   UNL     1      52.020   7.858  14.393  0.00  0.00    +0.000 OA
ATOM     31  C   UNL     1      50.865   7.252  16.368  0.00  0.00    +0.000 A 
ATOM     32  H   UNL     1      54.046   7.062  15.556  0.00  0.00    +0.000 HD
ENDBRANCH  20  22
ENDBRANCH  19  20
ENDBRANCH   1  19
TORSDOF 7
ENDMDL
