MODEL 1
REMARK VINA RESULT:    -7.736      0.000      0.000
REMARK INTER + INTRA:         -11.665
REMARK INTER:                 -10.901
REMARK INTRA:                  -0.763
REMARK UNBOUND:                -0.763
REMARK  Name = 
REMARK  8 active torsions:
REMARK  status: ('A' for Active; 'I' for Inactive)
REMARK    1  A    between atoms: C_1  and  N_2
REMARK    2  A    between atoms: N_2  and  C_3
REMARK    3  A    between atoms: N_2  and  C_24
REMARK    4  A    between atoms: C_3  and  C_4
REMARK    5  A    between atoms: C_7  and  C_8
REMARK    6  A    between atoms: C_8  and  N_9
REMARK    7  A    between atoms: C_10  and  C_12
REMARK    8  A    between atoms: C_24  and  C_25
REMARK                            x       y       z     vdW  Elec       q    Type
REMARK                         _______ _______ _______ _____ _____    ______ ____
ROOT
ATOM      1  C   UNL     1      44.977   5.198  11.443  0.00  0.00    +0.000 A 
ATOM      2  C   UNL     1      45.302   4.876  12.767  0.00  0.00    +0.000 A 
ATOM      3  C   UNL     1      46.400   5.470  13.397  0.00  0.00    +0.000 A 
ATOM      4  C   UNL     1      47.177   6.423  12.724  0.00  0.00    +0.000 A 
ATOM      5  C   UNL     1      46.912   6.672  11.372  0.00  0.00    +0.000 A 
ATOM      6  C   UNL     1      45.832   6.058  10.735  0.00  0.00    +0.000 A 
ENDROOT
BRANCH   1   7
ATOM      7  C   UNL     1      43.693   4.689  10.812  0.00  0.00    +0.000 C 
BRANCH   7   9
ATOM      8  C   UNL     1      43.233   2.464  11.582  0.00  0.00    +0.000 C 
ATOM      9  N   UNL     1      43.715   3.246  10.437  0.00  0.00    +0.000 NA
BRANCH   9  10
ATOM     10  C   UNL     1      45.069   2.812  10.041  0.00  0.00    +0.000 C 
BRANCH  10  11
ATOM     11  C   UNL     1      45.374   2.653   8.529  0.00  0.00    +0.000 C 
ATOM     12  C   UNL     1      46.259   1.405   8.345  0.00  0.00    +0.000 C 
ATOM     13  C   UNL     1      46.717   1.247   6.906  0.00  0.00    +0.000 C 
ATOM     14  O   UNL     1      47.399   2.420   6.471  0.00  0.00    +0.000 OA
ATOM     15  C   UNL     1      46.540   3.560   6.470  0.00  0.00    +0.000 C 
ATOM     16  C   UNL     1      46.041   3.878   7.880  0.00  0.00    +0.000 C 
ENDBRANCH  10  11
ENDBRANCH   9  10
ENDBRANCH   7   9
ENDBRANCH   1   7
BRANCH   4  17
ATOM     17  C   UNL     1      48.273   7.180  13.429  0.00  0.00    +0.000 C 
BRANCH  17  18
ATOM     18  N   UNL     1      48.092   7.158  14.855  0.00  0.00    +0.000 N 
ATOM     19  C   UNL     1      49.139   6.919  15.708  0.00  0.00    +0.000 C 
ATOM     20  O   UNL     1      50.287   6.748  15.314  0.00  0.00    +0.000 OA
ATOM     21  H   UNL     1      47.141   7.040  15.185  0.00  0.00    +0.000 HD
BRANCH  19  22
ATOM     22  C   UNL     1      48.807   6.961  17.135  0.00  0.00    +0.000 A 
ATOM     23  C   UNL     1      48.365   8.143  17.711  0.00  0.00    +0.000 A 
ATOM     24  S   UNL     1      47.940   7.979  19.355  0.00  0.00    +0.000 S 
ATOM     25  C   UNL     1      48.398   6.340  19.367  0.00  0.00    +0.000 A 
ATOM     26  N   UNL     1      48.303   5.593  20.500  0.00  0.00    +0.000 NA
ATOM     27  C   UNL     1      48.714   4.377  20.376  0.00  0.00    +0.000 A 
ATOM     28  N   UNL     1      49.210   3.834  19.215  0.00  0.00    +0.000 N 
ATOM     29  C   UNL     1      49.282   4.537  18.037  0.00  0.00    +0.000 A 
ATOM     30  O   UNL     1      49.668   4.001  17.001  0.00  0.00    +0.000 OA
ATOM     31  C   UNL     1      48.847   5.917  18.133  0.00  0.00    +0.000 A 
ATOM     32  H   UNL     1      49.497   2.869  19.174  0.00  0.00    +0.000 HD
ENDBRANCH  19  22
ENDBRANCH  17  18
ENDBRANCH   4  17
TORSDOF 7
ENDMDL
MODEL 2
REMARK VINA RESULT:    -7.596      2.754      8.588
REMARK INTER + INTRA:         -11.468
REMARK INTER:                  -9.826
REMARK INTRA:                  -1.642
REMARK UNBOUND:                -0.763
REMARK  Name = 
REMARK  8 active torsions:
REMARK  status: ('A' for Active; 'I' for Inactive)
REMARK    1  A    between atoms: C_1  and  N_2
REMARK    2  A    between atoms: N_2  and  C_3
REMARK    3  A    between atoms: N_2  and  C_24
REMARK    4  A    between atoms: C_3  and  C_4
REMARK    5  A    between atoms: C_7  and  C_8
REMARK    6  A    between atoms: C_8  and  N_9
REMARK    7  A    between atoms: C_10  and  C_12
REMARK    8  A    between atoms: C_24  and  C_25
REMARK                            x       y       z     vdW  Elec       q    Type
REMARK                         _______ _______ _______ _____ _____    ______ ____
ROOT
ATOM      1  C   UNL     1      49.297   8.159  15.887  0.00  0.00    +0.000 A 
ATOM      2  C   UNL     1      48.155   8.858  15.478  0.00  0.00    +0.000 A 
ATOM      3  C   UNL     1      47.714   8.791  14.151  0.00  0.00    +0.000 A 
ATOM      4  C   UNL     1      48.392   7.996  13.216  0.00  0.00    +0.000 A 
ATOM      5  C   UNL     1      49.587   7.376  13.601  0.00  0.00    +0.000 A 
ATOM      6  C   UNL     1      50.041   7.466  14.919  0.00  0.00    +0.000 A 
ENDROOT
BRANCH   1   7
ATOM      7  C   UNL     1      49.680   8.090  17.355  0.00  0.00    +0.000 C 
BRANCH   7   9
ATOM      8  C   UNL     1      48.564   7.657  19.434  0.00  0.00    +0.000 C 
ATOM      9  N   UNL     1      48.935   7.067  18.143  0.00  0.00    +0.000 NA
BRANCH   9  10
ATOM     10  C   UNL     1      49.739   5.845  18.340  0.00  0.00    +0.000 C 
BRANCH  10  11
ATOM     11  C   UNL     1      49.121   4.486  17.919  0.00  0.00    +0.000 C 
ATOM     12  C   UNL     1      50.271   3.527  17.556  0.00  0.00    +0.000 C 
ATOM     13  C   UNL     1      49.753   2.210  17.004  0.00  0.00    +0.000 C 
ATOM     14  O   UNL     1      48.911   2.441  15.878  0.00  0.00    +0.000 OA
ATOM     15  C   UNL     1      47.747   3.186  16.234  0.00  0.00    +0.000 C 
ATOM     16  C   UNL     1      48.116   4.574  16.758  0.00  0.00    +0.000 C 
ENDBRANCH  10  11
ENDBRANCH   9  10
ENDBRANCH   7   9
ENDBRANCH   1   7
BRANCH   4  17
ATOM     17  C   UNL     1      47.854   7.795  11.823  0.00  0.00    +0.000 C 
BRANCH  17  18
ATOM     18  N   UNL     1      47.092   6.580  11.725  0.00  0.00    +0.000 N 
ATOM     19  C   UNL     1      45.722   6.588  11.735  0.00  0.00    +0.000 C 
ATOM     20  O   UNL     1      45.068   7.623  11.788  0.00  0.00    +0.000 OA
ATOM     21  H   UNL     1      47.589   5.721  11.936  0.00  0.00    +0.000 HD
BRANCH  19  22
ATOM     22  C   UNL     1      45.085   5.276  11.594  0.00  0.00    +0.000 A 
ATOM     23  C   UNL     1      44.422   4.706  12.672  0.00  0.00    +0.000 A 
ATOM     24  S   UNL     1      43.666   3.223  12.296  0.00  0.00    +0.000 S 
ATOM     25  C   UNL     1      44.258   3.262  10.700  0.00  0.00    +0.000 A 
ATOM     26  N   UNL     1      43.987   2.255   9.826  0.00  0.00    +0.000 NA
ATOM     27  C   UNL     1      44.524   2.398   8.662  0.00  0.00    +0.000 A 
ATOM     28  N   UNL     1      45.308   3.462   8.288  0.00  0.00    +0.000 N 
ATOM     29  C   UNL     1      45.571   4.521   9.122  0.00  0.00    +0.000 A 
ATOM     30  O   UNL     1      46.220   5.489   8.733  0.00  0.00    +0.000 OA
ATOM     31  C   UNL     1      45.001   4.397  10.450  0.00  0.00    +0.000 A 
ATOM     32  H   UNL     1      45.684   3.528   7.356  0.00  0.00    +0.000 HD
ENDBRANCH  19  22
ENDBRANCH  17  18
ENDBRANCH   4  17
TORSDOF 7
ENDMDL
MODEL 3
REMARK VINA RESULT:    -7.563      2.298      3.058
REMARK INTER + INTRA:         -11.422
REMARK INTER:                 -10.579
REMARK INTRA:                  -0.843
REMARK UNBOUND:                -0.763
REMARK  Name = 
REMARK  8 active torsions:
REMARK  status: ('A' for Active; 'I' for Inactive)
REMARK    1  A    between atoms: C_1  and  N_2
REMARK    2  A    between atoms: N_2  and  C_3
REMARK    3  A    between atoms: N_2  and  C_24
REMARK    4  A    between atoms: C_3  and  C_4
REMARK    5  A    between atoms: C_7  and  C_8
REMARK    6  A    between atoms: C_8  and  N_9
REMARK    7  A    between atoms: C_10  and  C_12
REMARK    8  A    between atoms: C_24  and  C_25
REMARK                            x       y       z     vdW  Elec       q    Type
REMARK                         _______ _______ _______ _____ _____    ______ ____
ROOT
ATOM      1  C   UNL     1      45.952   4.280  12.885  0.00  0.00    +0.000 A 
ATOM      2  C   UNL     1      46.574   3.756  14.026  0.00  0.00    +0.000 A 
ATOM      3  C   UNL     1      47.435   4.546  14.795  0.00  0.00    +0.000 A 
ATOM      4  C   UNL     1      47.666   5.885  14.454  0.00  0.00    +0.000 A 
ATOM      5  C   UNL     1      47.124   6.379  13.262  0.00  0.00    +0.000 A 
ATOM      6  C   UNL     1      46.286   5.582  12.480  0.00  0.00    +0.000 A 
ENDROOT
BRANCH   1   7
ATOM      7  C   UNL     1      44.889   3.487  12.146  0.00  0.00    +0.000 C 
BRANCH   7   9
ATOM      8  C   UNL     1      43.164   4.711  11.015  0.00  0.00    +0.000 C 
ATOM      9  N   UNL     1      44.473   4.073  10.840  0.00  0.00    +0.000 NA
BRANCH   9  10
ATOM     10  C   UNL     1      44.416   3.045   9.781  0.00  0.00    +0.000 C 
BRANCH  10  11
ATOM     11  C   UNL     1      45.685   2.808   8.922  0.00  0.00    +0.000 C 
ATOM     12  C   UNL     1      45.646   3.783   7.729  0.00  0.00    +0.000 C 
ATOM     13  C   UNL     1      46.787   3.530   6.759  0.00  0.00    +0.000 C 
ATOM     14  O   UNL     1      46.766   2.178   6.310  0.00  0.00    +0.000 OA
ATOM     15  C   UNL     1      46.975   1.262   7.384  0.00  0.00    +0.000 C 
ATOM     16  C   UNL     1      45.857   1.363   8.423  0.00  0.00    +0.000 C 
ENDBRANCH  10  11
ENDBRANCH   9  10
ENDBRANCH   7   9
ENDBRANCH   1   7
BRANCH   4  17
ATOM     17  C   UNL     1      48.473   6.793  15.348  0.00  0.00    +0.000 C 
BRANCH  17  18
ATOM     18  N   UNL     1      49.607   6.107  15.904  0.00  0.00    +0.000 N 
ATOM     19  C   UNL     1      49.612   5.662  17.201  0.00  0.00    +0.000 C 
ATOM     20  O   UNL     1      48.647   5.786  17.946  0.00  0.00    +0.000 OA
ATOM     21  H   UNL     1      50.485   6.218  15.410  0.00  0.00    +0.000 HD
BRANCH  19  22
ATOM     22  C   UNL     1      50.825   4.952  17.616  0.00  0.00    +0.000 A 
ATOM     23  C   UNL     1      51.895   5.656  18.149  0.00  0.00    +0.000 A 
ATOM     24  S   UNL     1      53.179   4.655  18.660  0.00  0.00    +0.000 S 
ATOM     25  C   UNL     1      52.375   3.254  18.121  0.00  0.00    +0.000 A 
ATOM     26  N   UNL     1      52.946   2.026  18.243  0.00  0.00    +0.000 NA
ATOM     27  C   UNL     1      52.242   1.058  17.764  0.00  0.00    +0.000 A 
ATOM     28  N   UNL     1      51.009   1.205  17.175  0.00  0.00    +0.000 N 
ATOM     29  C   UNL     1      50.375   2.419  17.071  0.00  0.00    +0.000 A 
ATOM     30  O   UNL     1      49.244   2.505  16.599  0.00  0.00    +0.000 OA
ATOM     31  C   UNL     1      51.138   3.541  17.581  0.00  0.00    +0.000 A 
ATOM     32  H   UNL     1      50.496   0.406  16.838  0.00  0.00    +0.000 HD
ENDBRANCH  19  22
ENDBRANCH  17  18
ENDBRANCH   4  17
TORSDOF 7
ENDMDL
MODEL 4
REMARK VINA RESULT:    -6.829      3.482      8.499
REMARK INTER + INTRA:         -10.387
REMARK INTER:                  -8.538
REMARK INTRA:                  -1.849
REMARK UNBOUND:                -0.763
REMARK  Name = 
REMARK  8 active torsions:
REMARK  status: ('A' for Active; 'I' for Inactive)
REMARK    1  A    between atoms: C_1  and  N_2
REMARK    2  A    between atoms: N_2  and  C_3
REMARK    3  A    between atoms: N_2  and  C_24
REMARK    4  A    between atoms: C_3  and  C_4
REMARK    5  A    between atoms: C_7  and  C_8
REMARK    6  A    between atoms: C_8  and  N_9
REMARK    7  A    between atoms: C_10  and  C_12
REMARK    8  A    between atoms: C_24  and  C_25
REMARK                            x       y       z     vdW  Elec       q    Type
REMARK                         _______ _______ _______ _____ _____    ______ ____
ROOT
ATOM      1  C   UNL     1      49.902   8.000  18.041  0.00  0.00    +0.000 A 
ATOM      2  C   UNL     1      48.621   8.556  17.937  0.00  0.00    +0.000 A 
ATOM      3  C   UNL     1      48.102   8.923  16.691  0.00  0.00    +0.000 A 
ATOM      4  C   UNL     1      48.844   8.711  15.521  0.00  0.00    +0.000 A 
ATOM      5  C   UNL     1      50.159   8.246  15.634  0.00  0.00    +0.000 A 
ATOM      6  C   UNL     1      50.687   7.906  16.881  0.00  0.00    +0.000 A 
ENDROOT
BRANCH   1   7
ATOM      7  C   UNL     1      50.402   7.444  19.363  0.00  0.00    +0.000 C 
BRANCH   7   9
ATOM      8  C   UNL     1      49.949   6.011  21.233  0.00  0.00    +0.000 C 
ATOM      9  N   UNL     1      49.747   6.174  19.789  0.00  0.00    +0.000 NA
BRANCH   9  10
ATOM     10  C   UNL     1      50.287   5.014  19.052  0.00  0.00    +0.000 C 
BRANCH  10  11
ATOM     11  C   UNL     1      49.471   4.464  17.853  0.00  0.00    +0.000 C 
ATOM     12  C   UNL     1      47.992   4.847  18.063  0.00  0.00    +0.000 C 
ATOM     13  C   UNL     1      47.097   4.234  17.000  0.00  0.00    +0.000 C 
ATOM     14  O   UNL     1      47.255   2.818  16.975  0.00  0.00    +0.000 OA
ATOM     15  C   UNL     1      48.583   2.442  16.611  0.00  0.00    +0.000 C 
ATOM     16  C   UNL     1      49.601   2.947  17.634  0.00  0.00    +0.000 C 
ENDBRANCH  10  11
ENDBRANCH   9  10
ENDBRANCH   7   9
ENDBRANCH   1   7
BRANCH   4  17
ATOM     17  C   UNL     1      48.249   8.963  14.159  0.00  0.00    +0.000 C 
BRANCH  17  18
ATOM     18  N   UNL     1      47.299   7.944  13.804  0.00  0.00    +0.000 N 
ATOM     19  C   UNL     1      47.684   6.795  13.164  0.00  0.00    +0.000 C 
ATOM     20  O   UNL     1      48.853   6.551  12.890  0.00  0.00    +0.000 OA
ATOM     21  H   UNL     1      46.325   8.226  13.785  0.00  0.00    +0.000 HD
BRANCH  19  22
ATOM     22  C   UNL     1      46.610   5.835  12.898  0.00  0.00    +0.000 A 
ATOM     23  C   UNL     1      46.771   4.499  13.241  0.00  0.00    +0.000 A 
ATOM     24  S   UNL     1      45.385   3.551  12.943  0.00  0.00    +0.000 S 
ATOM     25  C   UNL     1      44.549   4.879  12.283  0.00  0.00    +0.000 A 
ATOM     26  N   UNL     1      43.282   4.745  11.806  0.00  0.00    +0.000 NA
ATOM     27  C   UNL     1      42.782   5.823  11.305  0.00  0.00    +0.000 A 
ATOM     28  N   UNL     1      43.433   7.031  11.241  0.00  0.00    +0.000 N 
ATOM     29  C   UNL     1      44.694   7.223  11.751  0.00  0.00    +0.000 A 
ATOM     30  O   UNL     1      45.220   8.333  11.738  0.00  0.00    +0.000 OA
ATOM     31  C   UNL     1      45.305   6.033  12.309  0.00  0.00    +0.000 A 
ATOM     32  H   UNL     1      42.981   7.845  10.856  0.00  0.00    +0.000 HD
ENDBRANCH  19  22
ENDBRANCH  17  18
ENDBRANCH   4  17
TORSDOF 7
ENDMDL
MODEL 5
REMARK VINA RESULT:    -6.667      3.532      8.112
REMARK INTER + INTRA:         -10.158
REMARK INTER:                  -8.048
REMARK INTRA:                  -2.110
REMARK UNBOUND:                -0.763
REMARK  Name = 
REMARK  8 active torsions:
REMARK  status: ('A' for Active; 'I' for Inactive)
REMARK    1  A    between atoms: C_1  and  N_2
REMARK    2  A    between atoms: N_2  and  C_3
REMARK    3  A    between atoms: N_2  and  C_24
REMARK    4  A    between atoms: C_3  and  C_4
REMARK    5  A    between atoms: C_7  and  C_8
REMARK    6  A    between atoms: C_8  and  N_9
REMARK    7  A    between atoms: C_10  and  C_12
REMARK    8  A    between atoms: C_24  and  C_25
REMARK                            x       y       z     vdW  Elec       q    Type
REMARK                         _______ _______ _______ _____ _____    ______ ____
ROOT
ATOM      1  C   UNL     1      50.224   7.948  18.104  0.00  0.00    +0.000 A 
ATOM      2  C   UNL     1      48.854   8.237  18.122  0.00  0.00    +0.000 A 
ATOM      3  C   UNL     1      48.225   8.782  16.997  0.00  0.00    +0.000 A 
ATOM      4  C   UNL     1      48.950   9.018  15.821  0.00  0.00    +0.000 A 
ATOM      5  C   UNL     1      50.336   8.820  15.835  0.00  0.00    +0.000 A 
ATOM      6  C   UNL     1      50.968   8.302  16.967  0.00  0.00    +0.000 A 
ENDROOT
BRANCH   1   7
ATOM      7  C   UNL     1      50.875   7.201  19.255  0.00  0.00    +0.000 C 
BRANCH   7   9
ATOM      8  C   UNL     1      50.343   5.853  21.167  0.00  0.00    +0.000 C 
ATOM      9  N   UNL     1      50.119   6.005  19.724  0.00  0.00    +0.000 NA
BRANCH   9  10
ATOM     10  C   UNL     1      50.534   4.786  19.001  0.00  0.00    +0.000 C 
BRANCH  10  11
ATOM     11  C   UNL     1      49.428   3.884  18.394  0.00  0.00    +0.000 C 
ATOM     12  C   UNL     1      50.091   2.922  17.389  0.00  0.00    +0.000 C 
ATOM     13  C   UNL     1      49.062   2.088  16.646  0.00  0.00    +0.000 C 
ATOM     14  O   UNL     1      48.119   2.931  15.992  0.00  0.00    +0.000 OA
ATOM     15  C   UNL     1      47.370   3.709  16.926  0.00  0.00    +0.000 C 
ATOM     16  C   UNL     1      48.279   4.651  17.716  0.00  0.00    +0.000 C 
ENDBRANCH  10  11
ENDBRANCH   9  10
ENDBRANCH   7   9
ENDBRANCH   1   7
BRANCH   4  17
ATOM     17  C   UNL     1      48.266   9.468  14.555  0.00  0.00    +0.000 C 
BRANCH  17  18
ATOM     18  N   UNL     1      47.309   8.495  14.104  0.00  0.00    +0.000 N 
ATOM     19  C   UNL     1      47.013   8.343  12.774  0.00  0.00    +0.000 C 
ATOM     20  O   UNL     1      47.568   8.991  11.895  0.00  0.00    +0.000 OA
ATOM     21  H   UNL     1      46.667   8.139  14.803  0.00  0.00    +0.000 HD
BRANCH  19  22
ATOM     22  C   UNL     1      46.043   7.289  12.464  0.00  0.00    +0.000 A 
ATOM     23  C   UNL     1      44.854   7.606  11.823  0.00  0.00    +0.000 A 
ATOM     24  S   UNL     1      43.894   6.242  11.462  0.00  0.00    +0.000 S 
ATOM     25  C   UNL     1      45.004   5.192  12.211  0.00  0.00    +0.000 A 
ATOM     26  N   UNL     1      44.773   3.853  12.273  0.00  0.00    +0.000 NA
ATOM     27  C   UNL     1      45.680   3.181  12.897  0.00  0.00    +0.000 A 
ATOM     28  N   UNL     1      46.806   3.727  13.464  0.00  0.00    +0.000 N 
ATOM     29  C   UNL     1      47.102   5.066  13.388  0.00  0.00    +0.000 A 
ATOM     30  O   UNL     1      48.151   5.511  13.848  0.00  0.00    +0.000 OA
ATOM     31  C   UNL     1      46.100   5.865  12.709  0.00  0.00    +0.000 A 
ATOM     32  H   UNL     1      47.490   3.147  13.922  0.00  0.00    +0.000 HD
ENDBRANCH  19  22
ENDBRANCH  17  18
ENDBRANCH   4  17
TORSDOF 7
ENDMDL
MODEL 6
REMARK VINA RESULT:    -6.565      4.894      6.678
REMARK INTER + INTRA:         -10.015
REMARK INTER:                  -8.822
REMARK INTRA:                  -1.193
REMARK UNBOUND:                -0.763
REMARK  Name = 
REMARK  8 active torsions:
REMARK  status: ('A' for Active; 'I' for Inactive)
REMARK    1  A    between atoms: C_1  and  N_2
REMARK    2  A    between atoms: N_2  and  C_3
REMARK    3  A    between atoms: N_2  and  C_24
REMARK    4  A    between atoms: C_3  and  C_4
REMARK    5  A    between atoms: C_7  and  C_8
REMARK    6  A    between atoms: C_8  and  N_9
REMARK    7  A    between atoms: C_10  and  C_12
REMARK    8  A    between atoms: C_24  and  C_25
REMARK                            x       y       z     vdW  Elec       q    Type
REMARK                         _______ _______ _______ _____ _____    ______ ____
ROOT
ATOM      1  C   UNL     1      45.131   9.330  11.737  0.00  0.00    +0.000 A 
ATOM      2  C   UNL     1      46.140   9.112  12.684  0.00  0.00    +0.000 A 
ATOM      3  C   UNL     1      46.403   7.824  13.162  0.00  0.00    +0.000 A 
ATOM      4  C   UNL     1      45.682   6.724  12.677  0.00  0.00    +0.000 A 
ATOM      5  C   UNL     1      44.611   6.954  11.805  0.00  0.00    +0.000 A 
ATOM      6  C   UNL     1      44.330   8.244  11.350  0.00  0.00    +0.000 A 
ENDROOT
BRANCH   1   7
ATOM      7  C   UNL     1      44.955  10.692  11.090  0.00  0.00    +0.000 C 
BRANCH   7   9
ATOM      8  C   UNL     1      43.911  11.361   9.037  0.00  0.00    +0.000 C 
ATOM      9  N   UNL     1      43.648  10.888  10.400  0.00  0.00    +0.000 NA
BRANCH   9  10
ATOM     10  C   UNL     1      42.790  11.843  11.129  0.00  0.00    +0.000 C 
BRANCH  10  11
ATOM     11  C   UNL     1      41.501  11.304  11.802  0.00  0.00    +0.000 C 
ATOM     12  C   UNL     1      40.630  10.648  10.713  0.00  0.00    +0.000 C 
ATOM     13  C   UNL     1      39.283  10.208  11.261  0.00  0.00    +0.000 C 
ATOM     14  O   UNL     1      38.605  11.311  11.856  0.00  0.00    +0.000 OA
ATOM     15  C   UNL     1      39.319  11.824  12.980  0.00  0.00    +0.000 C 
ATOM     16  C   UNL     1      40.689  12.364  12.566  0.00  0.00    +0.000 C 
ENDBRANCH  10  11
ENDBRANCH   9  10
ENDBRANCH   7   9
ENDBRANCH   1   7
BRANCH   4  17
ATOM     17  C   UNL     1      46.045   5.314  13.069  0.00  0.00    +0.000 C 
BRANCH  17  18
ATOM     18  N   UNL     1      46.612   5.267  14.388  0.00  0.00    +0.000 N 
ATOM     19  C   UNL     1      47.191   4.126  14.880  0.00  0.00    +0.000 C 
ATOM     20  O   UNL     1      47.294   3.099  14.220  0.00  0.00    +0.000 OA
ATOM     21  H   UNL     1      46.320   5.995  15.029  0.00  0.00    +0.000 HD
BRANCH  19  22
ATOM     22  C   UNL     1      47.756   4.240  16.228  0.00  0.00    +0.000 A 
ATOM     23  C   UNL     1      47.367   3.352  17.222  0.00  0.00    +0.000 A 
ATOM     24  S   UNL     1      48.197   3.579  18.695  0.00  0.00    +0.000 S 
ATOM     25  C   UNL     1      49.052   4.913  18.073  0.00  0.00    +0.000 A 
ATOM     26  N   UNL     1      49.938   5.599  18.843  0.00  0.00    +0.000 NA
ATOM     27  C   UNL     1      50.490   6.607  18.256  0.00  0.00    +0.000 A 
ATOM     28  N   UNL     1      50.239   6.990  16.960  0.00  0.00    +0.000 N 
ATOM     29  C   UNL     1      49.386   6.301  16.133  0.00  0.00    +0.000 A 
ATOM     30  O   UNL     1      49.236   6.632  14.960  0.00  0.00    +0.000 OA
ATOM     31  C   UNL     1      48.728   5.169  16.757  0.00  0.00    +0.000 A 
ATOM     32  H   UNL     1      50.718   7.775  16.549  0.00  0.00    +0.000 HD
ENDBRANCH  19  22
ENDBRANCH  17  18
ENDBRANCH   4  17
TORSDOF 7
ENDMDL
MODEL 7
REMARK VINA RESULT:    -6.415      3.665      6.243
REMARK INTER + INTRA:          -9.803
REMARK INTER:                  -8.081
REMARK INTRA:                  -1.722
REMARK UNBOUND:                -0.763
REMARK  Name = 
REMARK  8 active torsions:
REMARK  status: ('A' for Active; 'I' for Inactive)
REMARK    1  A    between atoms: C_1  and  N_2
REMARK    2  A    between atoms: N_2  and  C_3
REMARK    3  A    between atoms: N_2  and  C_24
REMARK    4  A    between atoms: C_3  and  C_4
REMARK    5  A    between atoms: C_7  and  C_8
REMARK    6  A    between atoms: C_8  and  N_9
REMARK    7  A    between atoms: C_10  and  C_12
REMARK    8  A    between atoms: C_24  and  C_25
REMARK                            x       y       z     vdW  Elec       q    Type
REMARK                         _______ _______ _______ _____ _____    ______ ____
ROOT
ATOM      1  C   UNL     1      44.970   9.217  11.657  0.00  0.00    +0.000 A 
ATOM      2  C   UNL     1      45.864   9.042  12.721  0.00  0.00    +0.000 A 
ATOM      3  C   UNL     1      46.125   7.766  13.232  0.00  0.00    +0.000 A 
ATOM      4  C   UNL     1      45.520   6.636  12.665  0.00  0.00    +0.000 A 
ATOM      5  C   UNL     1      44.554   6.819  11.669  0.00  0.00    +0.000 A 
ATOM      6  C   UNL     1      44.273   8.096  11.178  0.00  0.00    +0.000 A 
ENDROOT
BRANCH   1   7
ATOM      7  C   UNL     1      44.813  10.571  10.990  0.00  0.00    +0.000 C 
BRANCH   7   9
ATOM      8  C   UNL     1      44.926  12.892  11.586  0.00  0.00    +0.000 C 
ATOM      9  N   UNL     1      45.692  11.641  11.542  0.00  0.00    +0.000 NA
BRANCH   9  10
ATOM     10  C   UNL     1      46.915  11.806  10.733  0.00  0.00    +0.000 C 
BRANCH  10  11
ATOM     11  C   UNL     1      48.287  11.687  11.448  0.00  0.00    +0.000 C 
ATOM     12  C   UNL     1      48.858  10.285  11.160  0.00  0.00    +0.000 C 
ATOM     13  C   UNL     1      50.141  10.031  11.932  0.00  0.00    +0.000 C 
ATOM     14  O   UNL     1      49.925  10.214  13.328  0.00  0.00    +0.000 OA
ATOM     15  C   UNL     1      49.561  11.559  13.634  0.00  0.00    +0.000 C 
ATOM     16  C   UNL     1      48.240  11.942  12.964  0.00  0.00    +0.000 C 
ENDBRANCH  10  11
ENDBRANCH   9  10
ENDBRANCH   7   9
ENDBRANCH   1   7
BRANCH   4  17
ATOM     17  C   UNL     1      45.897   5.243  13.103  0.00  0.00    +0.000 C 
BRANCH  17  18
ATOM     18  N   UNL     1      46.512   5.250  14.401  0.00  0.00    +0.000 N 
ATOM     19  C   UNL     1      47.180   4.155  14.886  0.00  0.00    +0.000 C 
ATOM     20  O   UNL     1      47.324   3.127  14.234  0.00  0.00    +0.000 OA
ATOM     21  H   UNL     1      46.197   5.968  15.044  0.00  0.00    +0.000 HD
BRANCH  19  22
ATOM     22  C   UNL     1      47.784   4.323  16.210  0.00  0.00    +0.000 A 
ATOM     23  C   UNL     1      47.436   3.469  17.247  0.00  0.00    +0.000 A 
ATOM     24  S   UNL     1      48.307   3.757  18.685  0.00  0.00    +0.000 S 
ATOM     25  C   UNL     1      49.127   5.077  17.990  0.00  0.00    +0.000 A 
ATOM     26  N   UNL     1      50.028   5.800  18.707  0.00  0.00    +0.000 NA
ATOM     27  C   UNL     1      50.550   6.791  18.067  0.00  0.00    +0.000 A 
ATOM     28  N   UNL     1      50.255   7.125  16.767  0.00  0.00    +0.000 N 
ATOM     29  C   UNL     1      49.386   6.397  15.992  0.00  0.00    +0.000 A 
ATOM     30  O   UNL     1      49.196   6.684  14.813  0.00  0.00    +0.000 OA
ATOM     31  C   UNL     1      48.760   5.282  16.676  0.00  0.00    +0.000 A 
ATOM     32  H   UNL     1      50.712   7.900  16.314  0.00  0.00    +0.000 HD
ENDBRANCH  19  22
ENDBRANCH  17  18
ENDBRANCH   4  17
TORSDOF 7
ENDMDL
MODEL 8
REMARK VINA RESULT:    -6.350      3.996      5.193
REMARK INTER + INTRA:          -9.712
REMARK INTER:                  -8.576
REMARK INTRA:                  -1.136
REMARK UNBOUND:                -0.763
REMARK  Name = 
REMARK  8 active torsions:
REMARK  status: ('A' for Active; 'I' for Inactive)
REMARK    1  A    between atoms: C_1  and  N_2
REMARK    2  A    between atoms: N_2  and  C_3
REMARK    3  A    between atoms: N_2  and  C_24
REMARK    4  A    between atoms: C_3  and  C_4
REMARK    5  A    between atoms: C_7  and  C_8
REMARK    6  A    between atoms: C_8  and  N_9
REMARK    7  A    between atoms: C_10  and  C_12
REMARK    8  A    between atoms: C_24  and  C_25
REMARK                            x       y       z     vdW  Elec       q    Type
REMARK                         _______ _______ _______ _____ _____    ______ ____
ROOT
ATOM      1  C   UNL     1      45.748   5.121  12.451  0.00  0.00    +0.000 A 
ATOM      2  C   UNL     1      45.006   6.262  12.124  0.00  0.00    +0.000 A 
ATOM      3  C   UNL     1      45.496   7.541  12.412  0.00  0.00    +0.000 A 
ATOM      4  C   UNL     1      46.756   7.701  13.006  0.00  0.00    +0.000 A 
ATOM      5  C   UNL     1      47.453   6.561  13.421  0.00  0.00    +0.000 A 
ATOM      6  C   UNL     1      46.950   5.285  13.158  0.00  0.00    +0.000 A 
ENDROOT
BRANCH   1   7
ATOM      7  C   UNL     1      45.302   3.745  11.989  0.00  0.00    +0.000 C 
BRANCH   7   9
ATOM      8  C   UNL     1      43.257   2.506  11.800  0.00  0.00    +0.000 C 
ATOM      9  N   UNL     1      43.957   3.713  11.346  0.00  0.00    +0.000 NA
BRANCH   9  10
ATOM     10  C   UNL     1      44.062   3.733   9.874  0.00  0.00    +0.000 C 
BRANCH  10  11
ATOM     11  C   UNL     1      45.360   3.187   9.225  0.00  0.00    +0.000 C 
ATOM     12  C   UNL     1      45.708   4.083   8.020  0.00  0.00    +0.000 C 
ATOM     13  C   UNL     1      46.896   3.543   7.242  0.00  0.00    +0.000 C 
ATOM     14  O   UNL     1      46.647   2.204   6.823  0.00  0.00    +0.000 OA
ATOM     15  C   UNL     1      46.493   1.323   7.935  0.00  0.00    +0.000 C 
ATOM     16  C   UNL     1      45.285   1.714   8.788  0.00  0.00    +0.000 C 
ENDBRANCH  10  11
ENDBRANCH   9  10
ENDBRANCH   7   9
ENDBRANCH   1   7
BRANCH   4  17
ATOM     17  C   UNL     1      47.366   9.067  13.193  0.00  0.00    +0.000 C 
BRANCH  17  18
ATOM     18  N   UNL     1      48.792   8.988  13.346  0.00  0.00    +0.000 N 
ATOM     19  C   UNL     1      49.644   9.636  12.490  0.00  0.00    +0.000 C 
ATOM     20  O   UNL     1      49.246  10.347  11.574  0.00  0.00    +0.000 OA
ATOM     21  H   UNL     1      49.141   8.225  13.915  0.00  0.00    +0.000 HD
BRANCH  19  22
ATOM     22  C   UNL     1      51.070   9.490  12.793  0.00  0.00    +0.000 A 
ATOM     23  C   UNL     1      51.647  10.246  13.804  0.00  0.00    +0.000 A 
ATOM     24  S   UNL     1      53.290   9.874  14.075  0.00  0.00    +0.000 S 
ATOM     25  C   UNL     1      53.301   8.741  12.804  0.00  0.00    +0.000 A 
ATOM     26  N   UNL     1      54.433   8.059  12.482  0.00  0.00    +0.000 NA
ATOM     27  C   UNL     1      54.308   7.257  11.479  0.00  0.00    +0.000 A 
ATOM     28  N   UNL     1      53.147   7.070  10.768  0.00  0.00    +0.000 N 
ATOM     29  C   UNL     1      51.971   7.704  11.085  0.00  0.00    +0.000 A 
ATOM     30  O   UNL     1      50.935   7.463  10.470  0.00  0.00    +0.000 OA
ATOM     31  C   UNL     1      52.068   8.630  12.197  0.00  0.00    +0.000 A 
ATOM     32  H   UNL     1      53.105   6.413  10.005  0.00  0.00    +0.000 HD
ENDBRANCH  19  22
ENDBRANCH  17  18
ENDBRANCH   4  17
TORSDOF 7
ENDMDL
MODEL 9
REMARK VINA RESULT:    -6.254      3.360      9.625
REMARK INTER + INTRA:          -9.576
REMARK INTER:                  -8.185
REMARK INTRA:                  -1.391
REMARK UNBOUND:                -0.763
REMARK  Name = 
REMARK  8 active torsions:
REMARK  status: ('A' for Active; 'I' for Inactive)
REMARK    1  A    between atoms: C_1  and  N_2
REMARK    2  A    between atoms: N_2  and  C_3
REMARK    3  A    between atoms: N_2  and  C_24
REMARK    4  A    between atoms: C_3  and  C_4
REMARK    5  A    between atoms: C_7  and  C_8
REMARK    6  A    between atoms: C_8  and  N_9
REMARK    7  A    between atoms: C_10  and  C_12
REMARK    8  A    between atoms: C_24  and  C_25
REMARK                            x       y       z     vdW  Elec       q    Type
REMARK                         _______ _______ _______ _____ _____    ______ ____
ROOT
ATOM      1  C   UNL     1      50.677   5.148  17.763  0.00  0.00    +0.000 A 
ATOM      2  C   UNL     1      51.535   6.055  17.127  0.00  0.00    +0.000 A 
ATOM      3  C   UNL     1      51.041   6.963  16.184  0.00  0.00    +0.000 A 
ATOM      4  C   UNL     1      49.673   7.001  15.882  0.00  0.00    +0.000 A 
ATOM      5  C   UNL     1      48.833   6.032  16.444  0.00  0.00    +0.000 A 
ATOM      6  C   UNL     1      49.331   5.108  17.365  0.00  0.00    +0.000 A 
ENDROOT
BRANCH   1   7
ATOM      7  C   UNL     1      51.174   4.282  18.907  0.00  0.00    +0.000 C 
BRANCH   7   9
ATOM      8  C   UNL     1      52.589   4.402  20.840  0.00  0.00    +0.000 C 
ATOM      9  N   UNL     1      51.436   5.019  20.176  0.00  0.00    +0.000 NA
BRANCH   9  10
ATOM     10  C   UNL     1      50.255   5.007  21.061  0.00  0.00    +0.000 C 
BRANCH  10  11
ATOM     11  C   UNL     1      49.169   6.095  20.849  0.00  0.00    +0.000 C 
ATOM     12  C   UNL     1      49.876   7.411  20.471  0.00  0.00    +0.000 C 
ATOM     13  C   UNL     1      48.897   8.568  20.373  0.00  0.00    +0.000 C 
ATOM     14  O   UNL     1      48.178   8.712  21.594  0.00  0.00    +0.000 OA
ATOM     15  C   UNL     1      47.378   7.564  21.875  0.00  0.00    +0.000 C 
ATOM     16  C   UNL     1      48.244   6.317  22.058  0.00  0.00    +0.000 C 
ENDBRANCH  10  11
ENDBRANCH   9  10
ENDBRANCH   7   9
ENDBRANCH   1   7
BRANCH   4  17
ATOM     17  C   UNL     1      49.099   8.064  14.980  0.00  0.00    +0.000 C 
BRANCH  17  18
ATOM     18  N   UNL     1      47.897   7.611  14.335  0.00  0.00    +0.000 N 
ATOM     19  C   UNL     1      47.938   6.863  13.186  0.00  0.00    +0.000 C 
ATOM     20  O   UNL     1      48.988   6.507  12.666  0.00  0.00    +0.000 OA
ATOM     21  H   UNL     1      47.042   8.092  14.588  0.00  0.00    +0.000 HD
BRANCH  19  22
ATOM     22  C   UNL     1      46.634   6.446  12.663  0.00  0.00    +0.000 A 
ATOM     23  C   UNL     1      45.784   7.381  12.088  0.00  0.00    +0.000 A 
ATOM     24  S   UNL     1      44.355   6.698  11.453  0.00  0.00    +0.000 S 
ATOM     25  C   UNL     1      44.795   5.142  11.988  0.00  0.00    +0.000 A 
ATOM     26  N   UNL     1      43.981   4.073  11.778  0.00  0.00    +0.000 NA
ATOM     27  C   UNL     1      44.422   2.962  12.263  0.00  0.00    +0.000 A 
ATOM     28  N   UNL     1      45.611   2.820  12.938  0.00  0.00    +0.000 N 
ATOM     29  C   UNL     1      46.483   3.863  13.133  0.00  0.00    +0.000 A 
ATOM     30  O   UNL     1      47.568   3.687  13.682  0.00  0.00    +0.000 OA
ATOM     31  C   UNL     1      46.021   5.138  12.620  0.00  0.00    +0.000 A 
ATOM     32  H   UNL     1      45.912   1.920  13.276  0.00  0.00    +0.000 HD
ENDBRANCH  19  22
ENDBRANCH  17  18
ENDBRANCH   4  17
TORSDOF 7
ENDMDL
