MODEL 1
REMARK VINA RESULT:    -9.288      0.000      0.000
REMARK INTER + INTRA:         -13.788
REMARK INTER:                 -12.546
REMARK INTRA:                  -1.243
REMARK UNBOUND:                -1.243
REMARK  Name = 
REMARK  7 active torsions:
REMARK  status: ('A' for Active; 'I' for Inactive)
REMARK    1  A    between atoms: C_1  and  C_2
REMARK    2  A    between atoms: C_4  and  O_5
REMARK    3  A    between atoms: O_5  and  C_6
REMARK    4  A    between atoms: C_6  and  C_7
REMARK    5  A    between atoms: C_7  and  C_10
REMARK    6  A    between atoms: C_14  and  C_15
REMARK    7  A    between atoms: C_24  and  C_25
REMARK                            x       y       z     vdW  Elec       q    Type
REMARK                         _______ _______ _______ _____ _____    ______ ____
ROOT
ATOM      1  C   UNL     1      43.651   4.626  12.393  0.00  0.00    +0.000 C 
ATOM      2  F   UNL     1      43.380   3.427  12.987  0.00  0.00    +0.000 F 
ATOM      3  F   UNL     1      42.714   5.495  12.876  0.00  0.00    +0.000 F 
ENDROOT
BRANCH   1   4
ATOM      4  C   UNL     1      45.062   5.103  12.693  0.00  0.00    +0.000 A 
ATOM      5  C   UNL     1      45.715   6.007  11.848  0.00  0.00    +0.000 A 
ATOM      6  C   UNL     1      47.000   6.446  12.156  0.00  0.00    +0.000 A 
ATOM      7  C   UNL     1      47.645   5.988  13.310  0.00  0.00    +0.000 A 
ATOM      8  C   UNL     1      47.018   5.094  14.197  0.00  0.00    +0.000 A 
ATOM      9  C   UNL     1      45.720   4.668  13.859  0.00  0.00    +0.000 A 
BRANCH   8  10
ATOM     10  C   UNL     1      47.677   4.637  15.446  0.00  0.00    +0.000 A 
ATOM     11  C   UNL     1      48.388   5.527  16.273  0.00  0.00    +0.000 A 
ATOM     12  C   UNL     1      48.976   5.106  17.471  0.00  0.00    +0.000 A 
ATOM     13  C   UNL     1      48.855   3.782  17.880  0.00  0.00    +0.000 A 
ATOM     14  C   UNL     1      48.165   2.876  17.081  0.00  0.00    +0.000 A 
ATOM     15  C   UNL     1      47.594   3.299  15.876  0.00  0.00    +0.000 A 
ENDBRANCH   8  10
ENDBRANCH   1   4
BRANCH   1  16
ATOM     16  C   UNL     1      43.464   4.484  10.873  0.00  0.00    +0.000 C 
BRANCH  16  17
ATOM     17  O   UNL     1      43.675   3.131  10.439  0.00  0.00    +0.000 OA
BRANCH  17  21
ATOM     18  C   UNL     1      46.671   0.298   7.682  0.00  0.00    +0.000 C 
ATOM     19  C   UNL     1      46.103   1.650   8.016  0.00  0.00    +0.000 A 
ATOM     20  C   UNL     1      45.173   1.736   9.073  0.00  0.00    +0.000 A 
ATOM     21  C   UNL     1      44.592   2.953   9.436  0.00  0.00    +0.000 A 
ATOM     22  C   UNL     1      44.954   4.106   8.742  0.00  0.00    +0.000 A 
ATOM     23  C   UNL     1      45.879   4.045   7.695  0.00  0.00    +0.000 A 
ATOM     24  C   UNL     1      46.455   2.821   7.314  0.00  0.00    +0.000 A 
BRANCH  24  25
ATOM     25  C   UNL     1      47.452   2.785   6.197  0.00  0.00    +0.000 C 
ATOM     26  N   UNL     1      48.774   2.695   6.537  0.00  0.00    +0.000 N 
ATOM     27  O   UNL     1      47.133   2.851   5.019  0.00  0.00    +0.000 OA
ATOM     28  H   UNL     1      49.118   2.824   7.479  0.00  0.00    +0.000 HD
ATOM     29  H   UNL     1      49.438   2.757   5.776  0.00  0.00    +0.000 HD
ENDBRANCH  24  25
ENDBRANCH  17  21
ENDBRANCH  16  17
ENDBRANCH   1  16
TORSDOF 6
ENDMDL
MODEL 2
REMARK VINA RESULT:    -9.233      1.747      3.769
REMARK INTER + INTRA:         -13.715
REMARK INTER:                 -12.476
REMARK INTRA:                  -1.239
REMARK UNBOUND:                -1.243
REMARK  Name = 
REMARK  7 active torsions:
REMARK  status: ('A' for Active; 'I' for Inactive)
REMARK    1  A    between atoms: C_1  and  C_2
REMARK    2  A    between atoms: C_4  and  O_5
REMARK    3  A    between atoms: O_5  and  C_6
REMARK    4  A    between atoms: C_6  and  C_7
REMARK    5  A    between atoms: C_7  and  C_10
REMARK    6  A    between atoms: C_14  and  C_15
REMARK    7  A    between atoms: C_24  and  C_25
REMARK                            x       y       z     vdW  Elec       q    Type
REMARK                         _______ _______ _______ _____ _____    ______ ____
ROOT
ATOM      1  C   UNL     1      43.489   4.561  12.433  0.00  0.00    +0.000 C 
ATOM      2  F   UNL     1      43.274   3.367  13.057  0.00  0.00    +0.000 F 
ATOM      3  F   UNL     1      42.491   5.388  12.866  0.00  0.00    +0.000 F 
ENDROOT
BRANCH   1   4
ATOM      4  C   UNL     1      44.862   5.129  12.749  0.00  0.00    +0.000 A 
ATOM      5  C   UNL     1      45.857   4.336  13.332  0.00  0.00    +0.000 A 
ATOM      6  C   UNL     1      47.114   4.874  13.593  0.00  0.00    +0.000 A 
ATOM      7  C   UNL     1      47.391   6.208  13.274  0.00  0.00    +0.000 A 
ATOM      8  C   UNL     1      46.428   7.035  12.670  0.00  0.00    +0.000 A 
ATOM      9  C   UNL     1      45.166   6.464  12.419  0.00  0.00    +0.000 A 
BRANCH   8  10
ATOM     10  C   UNL     1      46.726   8.439  12.287  0.00  0.00    +0.000 A 
ATOM     11  C   UNL     1      48.040   8.864  12.014  0.00  0.00    +0.000 A 
ATOM     12  C   UNL     1      48.317  10.177  11.614  0.00  0.00    +0.000 A 
ATOM     13  C   UNL     1      47.283  11.094  11.466  0.00  0.00    +0.000 A 
ATOM     14  C   UNL     1      45.976  10.707  11.738  0.00  0.00    +0.000 A 
ATOM     15  C   UNL     1      45.705   9.398  12.153  0.00  0.00    +0.000 A 
ENDBRANCH   8  10
ENDBRANCH   1   4
BRANCH   1  16
ATOM     16  C   UNL     1      43.348   4.362  10.914  0.00  0.00    +0.000 C 
BRANCH  16  17
ATOM     17  O   UNL     1      43.659   3.014  10.527  0.00  0.00    +0.000 OA
BRANCH  17  21
ATOM     18  C   UNL     1      46.646   0.283   7.659  0.00  0.00    +0.000 C 
ATOM     19  C   UNL     1      46.065   1.620   8.031  0.00  0.00    +0.000 A 
ATOM     20  C   UNL     1      45.152   1.670   9.106  0.00  0.00    +0.000 A 
ATOM     21  C   UNL     1      44.561   2.871   9.504  0.00  0.00    +0.000 A 
ATOM     22  C   UNL     1      44.895   4.043   8.829  0.00  0.00    +0.000 A 
ATOM     23  C   UNL     1      45.802   4.018   7.765  0.00  0.00    +0.000 A 
ATOM     24  C   UNL     1      46.388   2.811   7.348  0.00  0.00    +0.000 A 
BRANCH  24  25
ATOM     25  C   UNL     1      47.366   2.812   6.213  0.00  0.00    +0.000 C 
ATOM     26  N   UNL     1      48.695   2.738   6.529  0.00  0.00    +0.000 N 
ATOM     27  O   UNL     1      47.025   2.896   5.043  0.00  0.00    +0.000 OA
ATOM     28  H   UNL     1      49.054   2.854   7.468  0.00  0.00    +0.000 HD
ATOM     29  H   UNL     1      49.345   2.826   5.758  0.00  0.00    +0.000 HD
ENDBRANCH  24  25
ENDBRANCH  17  21
ENDBRANCH  16  17
ENDBRANCH   1  16
TORSDOF 6
ENDMDL
MODEL 3
REMARK VINA RESULT:    -8.364      1.386      1.998
REMARK INTER + INTRA:         -12.540
REMARK INTER:                 -11.418
REMARK INTRA:                  -1.121
REMARK UNBOUND:                -1.243
REMARK  Name = 
REMARK  7 active torsions:
REMARK  status: ('A' for Active; 'I' for Inactive)
REMARK    1  A    between atoms: C_1  and  C_2
REMARK    2  A    between atoms: C_4  and  O_5
REMARK    3  A    between atoms: O_5  and  C_6
REMARK    4  A    between atoms: C_6  and  C_7
REMARK    5  A    between atoms: C_7  and  C_10
REMARK    6  A    between atoms: C_14  and  C_15
REMARK    7  A    between atoms: C_24  and  C_25
REMARK                            x       y       z     vdW  Elec       q    Type
REMARK                         _______ _______ _______ _____ _____    ______ ____
ROOT
ATOM      1  C   UNL     1      44.280   4.523  12.308  0.00  0.00    +0.000 C 
ATOM      2  F   UNL     1      44.946   3.350  12.517  0.00  0.00    +0.000 F 
ATOM      3  F   UNL     1      43.308   4.570  13.267  0.00  0.00    +0.000 F 
ENDROOT
BRANCH   1   4
ATOM      4  C   UNL     1      45.204   5.726  12.390  0.00  0.00    +0.000 A 
ATOM      5  C   UNL     1      44.973   6.871  11.619  0.00  0.00    +0.000 A 
ATOM      6  C   UNL     1      45.822   7.968  11.728  0.00  0.00    +0.000 A 
ATOM      7  C   UNL     1      46.910   7.934  12.608  0.00  0.00    +0.000 A 
ATOM      8  C   UNL     1      47.169   6.812  13.414  0.00  0.00    +0.000 A 
ATOM      9  C   UNL     1      46.294   5.717  13.282  0.00  0.00    +0.000 A 
BRANCH   8  10
ATOM     10  C   UNL     1      48.294   6.783  14.382  0.00  0.00    +0.000 A 
ATOM     11  C   UNL     1      48.222   6.038  15.575  0.00  0.00    +0.000 A 
ATOM     12  C   UNL     1      49.297   5.977  16.469  0.00  0.00    +0.000 A 
ATOM     13  C   UNL     1      50.479   6.652  16.185  0.00  0.00    +0.000 A 
ATOM     14  C   UNL     1      50.579   7.404  15.019  0.00  0.00    +0.000 A 
ATOM     15  C   UNL     1      49.495   7.475  14.137  0.00  0.00    +0.000 A 
ENDBRANCH   8  10
ENDBRANCH   1   4
BRANCH   1  16
ATOM     16  C   UNL     1      43.612   4.476  10.923  0.00  0.00    +0.000 C 
BRANCH  16  17
ATOM     17  O   UNL     1      43.657   3.156  10.358  0.00  0.00    +0.000 OA
BRANCH  17  21
ATOM     18  C   UNL     1      46.613   0.172   7.720  0.00  0.00    +0.000 C 
ATOM     19  C   UNL     1      46.127   1.556   8.058  0.00  0.00    +0.000 A 
ATOM     20  C   UNL     1      45.136   1.685   9.052  0.00  0.00    +0.000 A 
ATOM     21  C   UNL     1      44.625   2.934   9.413  0.00  0.00    +0.000 A 
ATOM     22  C   UNL     1      45.120   4.073   8.782  0.00  0.00    +0.000 A 
ATOM     23  C   UNL     1      46.108   3.969   7.798  0.00  0.00    +0.000 A 
ATOM     24  C   UNL     1      46.615   2.714   7.418  0.00  0.00    +0.000 A 
BRANCH  24  25
ATOM     25  C   UNL     1      47.681   2.630   6.369  0.00  0.00    +0.000 C 
ATOM     26  N   UNL     1      47.348   3.022   5.101  0.00  0.00    +0.000 N 
ATOM     27  O   UNL     1      48.807   2.213   6.598  0.00  0.00    +0.000 OA
ATOM     28  H   UNL     1      46.397   3.197   4.803  0.00  0.00    +0.000 HD
ATOM     29  H   UNL     1      48.052   2.879   4.388  0.00  0.00    +0.000 HD
ENDBRANCH  24  25
ENDBRANCH  17  21
ENDBRANCH  16  17
ENDBRANCH   1  16
TORSDOF 6
ENDMDL
MODEL 4
REMARK VINA RESULT:    -8.120      3.325      7.949
REMARK INTER + INTRA:         -12.210
REMARK INTER:                 -11.131
REMARK INTRA:                  -1.079
REMARK UNBOUND:                -1.243
REMARK  Name = 
REMARK  7 active torsions:
REMARK  status: ('A' for Active; 'I' for Inactive)
REMARK    1  A    between atoms: C_1  and  C_2
REMARK    2  A    between atoms: C_4  and  O_5
REMARK    3  A    between atoms: O_5  and  C_6
REMARK    4  A    between atoms: C_6  and  C_7
REMARK    5  A    between atoms: C_7  and  C_10
REMARK    6  A    between atoms: C_14  and  C_15
REMARK    7  A    between atoms: C_24  and  C_25
REMARK                            x       y       z     vdW  Elec       q    Type
REMARK                         _______ _______ _______ _____ _____    ______ ____
ROOT
ATOM      1  C   UNL     1      44.767   6.549  11.783  0.00  0.00    +0.000 C 
ATOM      2  F   UNL     1      44.096   7.477  11.040  0.00  0.00    +0.000 F 
ATOM      3  F   UNL     1      44.322   6.711  13.064  0.00  0.00    +0.000 F 
ENDROOT
BRANCH   1   4
ATOM      4  C   UNL     1      44.526   5.135  11.282  0.00  0.00    +0.000 A 
ATOM      5  C   UNL     1      43.598   4.295  11.908  0.00  0.00    +0.000 A 
ATOM      6  C   UNL     1      43.379   3.011  11.416  0.00  0.00    +0.000 A 
ATOM      7  C   UNL     1      44.082   2.554  10.296  0.00  0.00    +0.000 A 
ATOM      8  C   UNL     1      45.009   3.371   9.625  0.00  0.00    +0.000 A 
ATOM      9  C   UNL     1      45.210   4.664  10.145  0.00  0.00    +0.000 A 
BRANCH   8  10
ATOM     10  C   UNL     1      45.727   2.911   8.410  0.00  0.00    +0.000 A 
ATOM     11  C   UNL     1      45.989   3.782   7.335  0.00  0.00    +0.000 A 
ATOM     12  C   UNL     1      46.701   3.361   6.207  0.00  0.00    +0.000 A 
ATOM     13  C   UNL     1      47.181   2.058   6.131  0.00  0.00    +0.000 A 
ATOM     14  C   UNL     1      46.931   1.171   7.173  0.00  0.00    +0.000 A 
ATOM     15  C   UNL     1      46.205   1.592   8.292  0.00  0.00    +0.000 A 
ENDBRANCH   8  10
ENDBRANCH   1   4
BRANCH   1  16
ATOM     16  C   UNL     1      46.272   6.866  11.734  0.00  0.00    +0.000 C 
BRANCH  16  17
ATOM     17  O   UNL     1      47.064   5.724  12.099  0.00  0.00    +0.000 OA
BRANCH  17  21
ATOM     18  C   UNL     1      49.096   7.259  16.355  0.00  0.00    +0.000 C 
ATOM     19  C   UNL     1      48.299   6.240  15.587  0.00  0.00    +0.000 A 
ATOM     20  C   UNL     1      48.078   6.471  14.213  0.00  0.00    +0.000 A 
ATOM     21  C   UNL     1      47.338   5.579  13.434  0.00  0.00    +0.000 A 
ATOM     22  C   UNL     1      46.820   4.432  14.032  0.00  0.00    +0.000 A 
ATOM     23  C   UNL     1      47.031   4.180  15.391  0.00  0.00    +0.000 A 
ATOM     24  C   UNL     1      47.762   5.081  16.184  0.00  0.00    +0.000 A 
BRANCH  24  25
ATOM     25  C   UNL     1      47.984   4.783  17.635  0.00  0.00    +0.000 C 
ATOM     26  N   UNL     1      47.014   5.178  18.515  0.00  0.00    +0.000 N 
ATOM     27  O   UNL     1      48.990   4.228  18.053  0.00  0.00    +0.000 OA
ATOM     28  H   UNL     1      46.255   5.799  18.266  0.00  0.00    +0.000 HD
ATOM     29  H   UNL     1      47.217   5.046  19.497  0.00  0.00    +0.000 HD
ENDBRANCH  24  25
ENDBRANCH  17  21
ENDBRANCH  16  17
ENDBRANCH   1  16
TORSDOF 6
ENDMDL
MODEL 5
REMARK VINA RESULT:    -8.075      3.494      8.053
REMARK INTER + INTRA:         -12.150
REMARK INTER:                 -11.122
REMARK INTRA:                  -1.028
REMARK UNBOUND:                -1.243
REMARK  Name = 
REMARK  7 active torsions:
REMARK  status: ('A' for Active; 'I' for Inactive)
REMARK    1  A    between atoms: C_1  and  C_2
REMARK    2  A    between atoms: C_4  and  O_5
REMARK    3  A    between atoms: O_5  and  C_6
REMARK    4  A    between atoms: C_6  and  C_7
REMARK    5  A    between atoms: C_7  and  C_10
REMARK    6  A    between atoms: C_14  and  C_15
REMARK    7  A    between atoms: C_24  and  C_25
REMARK                            x       y       z     vdW  Elec       q    Type
REMARK                         _______ _______ _______ _____ _____    ______ ____
ROOT
ATOM      1  C   UNL     1      44.657   6.497  11.496  0.00  0.00    +0.000 C 
ATOM      2  F   UNL     1      45.393   7.213  10.597  0.00  0.00    +0.000 F 
ATOM      3  F   UNL     1      43.464   7.154  11.601  0.00  0.00    +0.000 F 
ENDROOT
BRANCH   1   4
ATOM      4  C   UNL     1      44.465   5.056  11.055  0.00  0.00    +0.000 A 
ATOM      5  C   UNL     1      43.553   4.216  11.705  0.00  0.00    +0.000 A 
ATOM      6  C   UNL     1      43.379   2.906  11.268  0.00  0.00    +0.000 A 
ATOM      7  C   UNL     1      44.111   2.422  10.178  0.00  0.00    +0.000 A 
ATOM      8  C   UNL     1      45.024   3.237   9.485  0.00  0.00    +0.000 A 
ATOM      9  C   UNL     1      45.179   4.556   9.950  0.00  0.00    +0.000 A 
BRANCH   8  10
ATOM     10  C   UNL     1      45.773   2.746   8.301  0.00  0.00    +0.000 A 
ATOM     11  C   UNL     1      46.047   3.583   7.203  0.00  0.00    +0.000 A 
ATOM     12  C   UNL     1      46.788   3.134   6.104  0.00  0.00    +0.000 A 
ATOM     13  C   UNL     1      47.284   1.836   6.081  0.00  0.00    +0.000 A 
ATOM     14  C   UNL     1      47.024   0.981   7.147  0.00  0.00    +0.000 A 
ATOM     15  C   UNL     1      46.269   1.430   8.236  0.00  0.00    +0.000 A 
ENDBRANCH   8  10
ENDBRANCH   1   4
BRANCH   1  16
ATOM     16  C   UNL     1      45.368   6.531  12.860  0.00  0.00    +0.000 C 
BRANCH  16  17
ATOM     17  O   UNL     1      46.562   5.732  12.854  0.00  0.00    +0.000 OA
BRANCH  17  21
ATOM     18  C   UNL     1      47.384   3.307  17.102  0.00  0.00    +0.000 C 
ATOM     19  C   UNL     1      47.679   4.464  16.186  0.00  0.00    +0.000 A 
ATOM     20  C   UNL     1      46.969   4.543  14.969  0.00  0.00    +0.000 A 
ATOM     21  C   UNL     1      47.195   5.579  14.061  0.00  0.00    +0.000 A 
ATOM     22  C   UNL     1      48.133   6.560  14.375  0.00  0.00    +0.000 A 
ATOM     23  C   UNL     1      48.844   6.504  15.579  0.00  0.00    +0.000 A 
ATOM     24  C   UNL     1      48.633   5.456  16.491  0.00  0.00    +0.000 A 
BRANCH  24  25
ATOM     25  C   UNL     1      49.399   5.426  17.778  0.00  0.00    +0.000 C 
ATOM     26  N   UNL     1      48.914   6.175  18.815  0.00  0.00    +0.000 N 
ATOM     27  O   UNL     1      50.428   4.784  17.924  0.00  0.00    +0.000 OA
ATOM     28  H   UNL     1      48.184   6.868  18.709  0.00  0.00    +0.000 HD
ATOM     29  H   UNL     1      49.487   6.212  19.648  0.00  0.00    +0.000 HD
ENDBRANCH  24  25
ENDBRANCH  17  21
ENDBRANCH  16  17
ENDBRANCH   1  16
TORSDOF 6
ENDMDL
MODEL 6
REMARK VINA RESULT:    -7.984      2.835      3.903
REMARK INTER + INTRA:         -12.027
REMARK INTER:                 -11.085
REMARK INTRA:                  -0.942
REMARK UNBOUND:                -1.243
REMARK  Name = 
REMARK  7 active torsions:
REMARK  status: ('A' for Active; 'I' for Inactive)
REMARK    1  A    between atoms: C_1  and  C_2
REMARK    2  A    between atoms: C_4  and  O_5
REMARK    3  A    between atoms: O_5  and  C_6
REMARK    4  A    between atoms: C_6  and  C_7
REMARK    5  A    between atoms: C_7  and  C_10
REMARK    6  A    between atoms: C_14  and  C_15
REMARK    7  A    between atoms: C_24  and  C_25
REMARK                            x       y       z     vdW  Elec       q    Type
REMARK                         _______ _______ _______ _____ _____    ______ ____
ROOT
ATOM      1  C   UNL     1      45.074   4.955  12.084  0.00  0.00    +0.000 C 
ATOM      2  F   UNL     1      46.098   4.109  11.771  0.00  0.00    +0.000 F 
ATOM      3  F   UNL     1      44.584   4.514  13.280  0.00  0.00    +0.000 F 
ENDROOT
BRANCH   1   4
ATOM      4  C   UNL     1      45.535   6.400  12.168  0.00  0.00    +0.000 A 
ATOM      5  C   UNL     1      44.665   7.415  12.583  0.00  0.00    +0.000 A 
ATOM      6  C   UNL     1      45.118   8.728  12.673  0.00  0.00    +0.000 A 
ATOM      7  C   UNL     1      46.444   9.042  12.350  0.00  0.00    +0.000 A 
ATOM      8  C   UNL     1      47.356   8.051  11.946  0.00  0.00    +0.000 A 
ATOM      9  C   UNL     1      46.869   6.733  11.864  0.00  0.00    +0.000 A 
BRANCH   8  10
ATOM     10  C   UNL     1      48.775   8.366  11.643  0.00  0.00    +0.000 A 
ATOM     11  C   UNL     1      49.746   7.354  11.526  0.00  0.00    +0.000 A 
ATOM     12  C   UNL     1      51.075   7.646  11.200  0.00  0.00    +0.000 A 
ATOM     13  C   UNL     1      51.464   8.962  10.972  0.00  0.00    +0.000 A 
ATOM     14  C   UNL     1      50.530   9.985  11.088  0.00  0.00    +0.000 A 
ATOM     15  C   UNL     1      49.206   9.689  11.429  0.00  0.00    +0.000 A 
ENDBRANCH   8  10
ENDBRANCH   1   4
BRANCH   1  16
ATOM     16  C   UNL     1      43.975   4.824  11.016  0.00  0.00    +0.000 C 
BRANCH  16  17
ATOM     17  O   UNL     1      43.917   3.492  10.478  0.00  0.00    +0.000 OA
BRANCH  17  21
ATOM     18  C   UNL     1      46.630   0.367   7.743  0.00  0.00    +0.000 C 
ATOM     19  C   UNL     1      46.156   1.765   8.036  0.00  0.00    +0.000 A 
ATOM     20  C   UNL     1      45.275   1.952   9.122  0.00  0.00    +0.000 A 
ATOM     21  C   UNL     1      44.781   3.216   9.450  0.00  0.00    +0.000 A 
ATOM     22  C   UNL     1      45.182   4.315   8.691  0.00  0.00    +0.000 A 
ATOM     23  C   UNL     1      46.059   4.153   7.614  0.00  0.00    +0.000 A 
ATOM     24  C   UNL     1      46.547   2.881   7.268  0.00  0.00    +0.000 A 
BRANCH  24  25
ATOM     25  C   UNL     1      47.495   2.737   6.117  0.00  0.00    +0.000 C 
ATOM     26  N   UNL     1      48.828   2.642   6.409  0.00  0.00    +0.000 N 
ATOM     27  O   UNL     1      47.127   2.720   4.952  0.00  0.00    +0.000 OA
ATOM     28  H   UNL     1      49.214   2.835   7.324  0.00  0.00    +0.000 HD
ATOM     29  H   UNL     1      49.460   2.631   5.619  0.00  0.00    +0.000 HD
ENDBRANCH  24  25
ENDBRANCH  17  21
ENDBRANCH  16  17
ENDBRANCH   1  16
TORSDOF 6
ENDMDL
MODEL 7
REMARK VINA RESULT:    -7.852      3.655      7.372
REMARK INTER + INTRA:         -11.849
REMARK INTER:                 -10.759
REMARK INTRA:                  -1.090
REMARK UNBOUND:                -1.243
REMARK  Name = 
REMARK  7 active torsions:
REMARK  status: ('A' for Active; 'I' for Inactive)
REMARK    1  A    between atoms: C_1  and  C_2
REMARK    2  A    between atoms: C_4  and  O_5
REMARK    3  A    between atoms: O_5  and  C_6
REMARK    4  A    between atoms: C_6  and  C_7
REMARK    5  A    between atoms: C_7  and  C_10
REMARK    6  A    between atoms: C_14  and  C_15
REMARK    7  A    between atoms: C_24  and  C_25
REMARK                            x       y       z     vdW  Elec       q    Type
REMARK                         _______ _______ _______ _____ _____    ______ ____
ROOT
ATOM      1  C   UNL     1      44.378   6.496  11.451  0.00  0.00    +0.000 C 
ATOM      2  F   UNL     1      45.098   7.227  10.550  0.00  0.00    +0.000 F 
ATOM      3  F   UNL     1      43.139   7.072  11.484  0.00  0.00    +0.000 F 
ENDROOT
BRANCH   1   4
ATOM      4  C   UNL     1      44.302   5.029  11.064  0.00  0.00    +0.000 A 
ATOM      5  C   UNL     1      43.482   4.137  11.763  0.00  0.00    +0.000 A 
ATOM      6  C   UNL     1      43.413   2.802  11.375  0.00  0.00    +0.000 A 
ATOM      7  C   UNL     1      44.163   2.344  10.285  0.00  0.00    +0.000 A 
ATOM      8  C   UNL     1      44.985   3.210   9.542  0.00  0.00    +0.000 A 
ATOM      9  C   UNL     1      45.035   4.554   9.959  0.00  0.00    +0.000 A 
BRANCH   8  10
ATOM     10  C   UNL     1      45.749   2.744   8.358  0.00  0.00    +0.000 A 
ATOM     11  C   UNL     1      46.042   3.605   7.284  0.00  0.00    +0.000 A 
ATOM     12  C   UNL     1      46.797   3.179   6.185  0.00  0.00    +0.000 A 
ATOM     13  C   UNL     1      47.289   1.879   6.140  0.00  0.00    +0.000 A 
ATOM     14  C   UNL     1      47.010   1.001   7.181  0.00  0.00    +0.000 A 
ATOM     15  C   UNL     1      46.241   1.428   8.270  0.00  0.00    +0.000 A 
ENDBRANCH   8  10
ENDBRANCH   1   4
BRANCH   1  16
ATOM     16  C   UNL     1      45.028   6.633  12.838  0.00  0.00    +0.000 C 
BRANCH  16  17
ATOM     17  O   UNL     1      45.619   7.931  13.019  0.00  0.00    +0.000 OA
BRANCH  17  21
ATOM     18  C   UNL     1      49.454  10.482  11.178  0.00  0.00    +0.000 C 
ATOM     19  C   UNL     1      48.898   9.217  11.773  0.00  0.00    +0.000 A 
ATOM     20  C   UNL     1      47.525   9.184  12.097  0.00  0.00    +0.000 A 
ATOM     21  C   UNL     1      46.937   8.051  12.663  0.00  0.00    +0.000 A 
ATOM     22  C   UNL     1      47.727   6.928  12.899  0.00  0.00    +0.000 A 
ATOM     23  C   UNL     1      49.090   6.936  12.580  0.00  0.00    +0.000 A 
ATOM     24  C   UNL     1      49.691   8.078  12.025  0.00  0.00    +0.000 A 
BRANCH  24  25
ATOM     25  C   UNL     1      51.149   8.058  11.682  0.00  0.00    +0.000 C 
ATOM     26  N   UNL     1      51.504   7.508  10.480  0.00  0.00    +0.000 N 
ATOM     27  O   UNL     1      52.014   8.488  12.430  0.00  0.00    +0.000 OA
ATOM     28  H   UNL     1      50.870   6.970   9.903  0.00  0.00    +0.000 HD
ATOM     29  H   UNL     1      52.496   7.424  10.301  0.00  0.00    +0.000 HD
ENDBRANCH  24  25
ENDBRANCH  17  21
ENDBRANCH  16  17
ENDBRANCH   1  16
TORSDOF 6
ENDMDL
MODEL 8
REMARK VINA RESULT:    -7.256      3.733      7.895
REMARK INTER + INTRA:         -11.044
REMARK INTER:                 -10.097
REMARK INTRA:                  -0.947
REMARK UNBOUND:                -1.243
REMARK  Name = 
REMARK  7 active torsions:
REMARK  status: ('A' for Active; 'I' for Inactive)
REMARK    1  A    between atoms: C_1  and  C_2
REMARK    2  A    between atoms: C_4  and  O_5
REMARK    3  A    between atoms: O_5  and  C_6
REMARK    4  A    between atoms: C_6  and  C_7
REMARK    5  A    between atoms: C_7  and  C_10
REMARK    6  A    between atoms: C_14  and  C_15
REMARK    7  A    between atoms: C_24  and  C_25
REMARK                            x       y       z     vdW  Elec       q    Type
REMARK                         _______ _______ _______ _____ _____    ______ ____
ROOT
ATOM      1  C   UNL     1      44.860   6.295  11.882  0.00  0.00    +0.000 C 
ATOM      2  F   UNL     1      44.020   7.233  11.356  0.00  0.00    +0.000 F 
ATOM      3  F   UNL     1      44.669   6.346  13.234  0.00  0.00    +0.000 F 
ENDROOT
BRANCH   1   4
ATOM      4  C   UNL     1      44.581   4.907  11.331  0.00  0.00    +0.000 A 
ATOM      5  C   UNL     1      43.617   4.077  11.914  0.00  0.00    +0.000 A 
ATOM      6  C   UNL     1      43.363   2.818  11.377  0.00  0.00    +0.000 A 
ATOM      7  C   UNL     1      44.069   2.375  10.252  0.00  0.00    +0.000 A 
ATOM      8  C   UNL     1      45.032   3.183   9.623  0.00  0.00    +0.000 A 
ATOM      9  C   UNL     1      45.267   4.451  10.189  0.00  0.00    +0.000 A 
BRANCH   8  10
ATOM     10  C   UNL     1      45.754   2.740   8.404  0.00  0.00    +0.000 A 
ATOM     11  C   UNL     1      46.017   3.625   7.341  0.00  0.00    +0.000 A 
ATOM     12  C   UNL     1      46.733   3.220   6.208  0.00  0.00    +0.000 A 
ATOM     13  C   UNL     1      47.215   1.919   6.117  0.00  0.00    +0.000 A 
ATOM     14  C   UNL     1      46.965   1.019   7.147  0.00  0.00    +0.000 A 
ATOM     15  C   UNL     1      46.235   1.424   8.270  0.00  0.00    +0.000 A 
ENDBRANCH   8  10
ENDBRANCH   1   4
BRANCH   1  16
ATOM     16  C   UNL     1      46.312   6.694  11.568  0.00  0.00    +0.000 C 
BRANCH  16  17
ATOM     17  O   UNL     1      46.644   7.970  12.139  0.00  0.00    +0.000 OA
BRANCH  17  21
ATOM     18  C   UNL     1      50.025   6.933  15.617  0.00  0.00    +0.000 C 
ATOM     19  C   UNL     1      49.642   7.637  14.343  0.00  0.00    +0.000 A 
ATOM     20  C   UNL     1      48.326   7.471  13.865  0.00  0.00    +0.000 A 
ATOM     21  C   UNL     1      47.897   8.081  12.685  0.00  0.00    +0.000 A 
ATOM     22  C   UNL     1      48.792   8.881  11.976  0.00  0.00    +0.000 A 
ATOM     23  C   UNL     1      50.101   9.064  12.435  0.00  0.00    +0.000 A 
ATOM     24  C   UNL     1      50.543   8.439  13.613  0.00  0.00    +0.000 A 
BRANCH  24  25
ATOM     25  C   UNL     1      51.946   8.661  14.090  0.00  0.00    +0.000 C 
ATOM     26  N   UNL     1      52.893   7.754  13.700  0.00  0.00    +0.000 N 
ATOM     27  O   UNL     1      52.261   9.592  14.815  0.00  0.00    +0.000 OA
ATOM     28  H   UNL     1      52.671   6.869  13.263  0.00  0.00    +0.000 HD
ATOM     29  H   UNL     1      53.815   7.869  14.099  0.00  0.00    +0.000 HD
ENDBRANCH  24  25
ENDBRANCH  17  21
ENDBRANCH  16  17
ENDBRANCH   1  16
TORSDOF 6
ENDMDL
MODEL 9
REMARK VINA RESULT:    -7.071      3.736      6.365
REMARK INTER + INTRA:         -10.794
REMARK INTER:                  -9.751
REMARK INTRA:                  -1.043
REMARK UNBOUND:                -1.243
REMARK  Name = 
REMARK  7 active torsions:
REMARK  status: ('A' for Active; 'I' for Inactive)
REMARK    1  A    between atoms: C_1  and  C_2
REMARK    2  A    between atoms: C_4  and  O_5
REMARK    3  A    between atoms: O_5  and  C_6
REMARK    4  A    between atoms: C_6  and  C_7
REMARK    5  A    between atoms: C_7  and  C_10
REMARK    6  A    between atoms: C_14  and  C_15
REMARK    7  A    between atoms: C_24  and  C_25
REMARK                            x       y       z     vdW  Elec       q    Type
REMARK                         _______ _______ _______ _____ _____    ______ ____
ROOT
ATOM      1  C   UNL     1      47.902   3.075  16.780  0.00  0.00    +0.000 C 
ATOM      2  F   UNL     1      48.141   2.123  15.830  0.00  0.00    +0.000 F 
ATOM      3  F   UNL     1      47.028   2.503  17.660  0.00  0.00    +0.000 F 
ENDROOT
BRANCH   1   4
ATOM      4  C   UNL     1      49.179   3.522  17.471  0.00  0.00    +0.000 A 
ATOM      5  C   UNL     1      49.201   4.661  18.284  0.00  0.00    +0.000 A 
ATOM      6  C   UNL     1      50.378   5.038  18.924  0.00  0.00    +0.000 A 
ATOM      7  C   UNL     1      51.544   4.282  18.761  0.00  0.00    +0.000 A 
ATOM      8  C   UNL     1      51.562   3.120  17.969  0.00  0.00    +0.000 A 
ATOM      9  C   UNL     1      50.358   2.764  17.334  0.00  0.00    +0.000 A 
BRANCH   8  10
ATOM     10  C   UNL     1      52.782   2.286  17.825  0.00  0.00    +0.000 A 
ATOM     11  C   UNL     1      54.071   2.846  17.914  0.00  0.00    +0.000 A 
ATOM     12  C   UNL     1      55.223   2.056  17.818  0.00  0.00    +0.000 A 
ATOM     13  C   UNL     1      55.112   0.681  17.643  0.00  0.00    +0.000 A 
ATOM     14  C   UNL     1      53.853   0.099  17.543  0.00  0.00    +0.000 A 
ATOM     15  C   UNL     1      52.705   0.895  17.623  0.00  0.00    +0.000 A 
ENDBRANCH   8  10
ENDBRANCH   1   4
BRANCH   1  16
ATOM     16  C   UNL     1      47.223   4.283  16.114  0.00  0.00    +0.000 C 
BRANCH  16  17
ATOM     17  O   UNL     1      47.790   4.565  14.824  0.00  0.00    +0.000 OA
BRANCH  17  21
ATOM     18  C   UNL     1      45.319   7.406  11.596  0.00  0.00    +0.000 C 
ATOM     19  C   UNL     1      45.629   6.046  12.161  0.00  0.00    +0.000 A 
ATOM     20  C   UNL     1      46.551   5.966  13.226  0.00  0.00    +0.000 A 
ATOM     21  C   UNL     1      46.900   4.740  13.796  0.00  0.00    +0.000 A 
ATOM     22  C   UNL     1      46.311   3.576  13.306  0.00  0.00    +0.000 A 
ATOM     23  C   UNL     1      45.390   3.633  12.255  0.00  0.00    +0.000 A 
ATOM     24  C   UNL     1      45.047   4.862  11.666  0.00  0.00    +0.000 A 
BRANCH  24  25
ATOM     25  C   UNL     1      44.049   4.897  10.549  0.00  0.00    +0.000 C 
ATOM     26  N   UNL     1      44.516   4.679   9.281  0.00  0.00    +0.000 N 
ATOM     27  O   UNL     1      42.862   5.127  10.726  0.00  0.00    +0.000 OA
ATOM     28  H   UNL     1      45.499   4.670   9.043  0.00  0.00    +0.000 HD
ATOM     29  H   UNL     1      43.846   4.791   8.531  0.00  0.00    +0.000 HD
ENDBRANCH  24  25
ENDBRANCH  17  21
ENDBRANCH  16  17
ENDBRANCH   1  16
TORSDOF 6
ENDMDL
