MODEL 1
REMARK VINA RESULT:    -8.484      0.000      0.000
REMARK INTER + INTRA:         -12.360
REMARK INTER:                 -11.459
REMARK INTRA:                  -0.901
REMARK UNBOUND:                -0.901
REMARK  Name = 
REMARK  6 active torsions:
REMARK  status: ('A' for Active; 'I' for Inactive)
REMARK    1  A    between atoms: C_2  and  C_21
REMARK    2  A    between atoms: N_3  and  C_4
REMARK    3  A    between atoms: C_4  and  C_5
REMARK    4  A    between atoms: C_8  and  C_9
REMARK    5  A    between atoms: C_9  and  N_10
REMARK    6  A    between atoms: C_11  and  C_13
REMARK                            x       y       z     vdW  Elec       q    Type
REMARK                         _______ _______ _______ _____ _____    ______ ____
ROOT
ATOM      1  C   UNL     1      47.334   6.037  13.360  0.00  0.00    +0.000 A 
ATOM      2  C   UNL     1      47.056   4.757  13.856  0.00  0.00    +0.000 A 
ATOM      3  C   UNL     1      46.119   3.930  13.222  0.00  0.00    +0.000 A 
ATOM      4  C   UNL     1      45.458   4.357  12.062  0.00  0.00    +0.000 A 
ATOM      5  C   UNL     1      45.744   5.633  11.560  0.00  0.00    +0.000 A 
ATOM      6  C   UNL     1      46.681   6.460  12.195  0.00  0.00    +0.000 A 
ENDROOT
BRANCH   1   7
ATOM      7  C   UNL     1      48.324   6.933  14.061  0.00  0.00    +0.000 C 
BRANCH   7  10
ATOM      8  O   UNL     1      50.229   6.289  15.960  0.00  0.00    +0.000 OA
ATOM      9  C   UNL     1      49.140   6.702  16.352  0.00  0.00    +0.000 C 
ATOM     10  N   UNL     1      48.110   6.975  15.486  0.00  0.00    +0.000 N 
ATOM     11  H   UNL     1      47.313   7.510  15.816  0.00  0.00    +0.000 HD
BRANCH   9  12
ATOM     12  C   UNL     1      48.870   6.890  17.782  0.00  0.00    +0.000 A 
ATOM     13  C   UNL     1      48.614   8.160  18.281  0.00  0.00    +0.000 A 
ATOM     14  S   UNL     1      48.332   8.192  19.963  0.00  0.00    +0.000 S 
ATOM     15  C   UNL     1      48.491   6.503  20.076  0.00  0.00    +0.000 A 
ATOM     16  N   UNL     1      48.325   5.861  21.265  0.00  0.00    +0.000 NA
ATOM     17  C   UNL     1      48.435   4.575  21.195  0.00  0.00    +0.000 A 
ATOM     18  N   UNL     1      48.705   3.875  20.050  0.00  0.00    +0.000 N 
ATOM     19  C   UNL     1      48.922   4.481  18.836  0.00  0.00    +0.000 A 
ATOM     20  O   UNL     1      49.227   3.829  17.843  0.00  0.00    +0.000 OA
ATOM     21  C   UNL     1      48.784   5.925  18.854  0.00  0.00    +0.000 A 
ATOM     22  H   UNL     1      48.795   2.868  20.070  0.00  0.00    +0.000 HD
ENDBRANCH   9  12
ENDBRANCH   7  10
ENDBRANCH   1   7
BRANCH   4  23
ATOM     23  C   UNL     1      44.461   3.460  11.368  0.00  0.00    +0.000 C 
BRANCH  23  24
ATOM     24  N   UNL     1      45.028   2.804  10.211  0.00  0.00    +0.000 N 
ATOM     25  C   UNL     1      44.846   3.324   8.945  0.00  0.00    +0.000 C 
ATOM     26  O   UNL     1      44.187   4.339   8.737  0.00  0.00    +0.000 OA
ATOM     27  H   UNL     1      45.713   2.076  10.363  0.00  0.00    +0.000 HD
BRANCH  25  28
ATOM     28  C   UNL     1      45.571   2.558   7.839  0.00  0.00    +0.000 C 
ATOM     29  C   UNL     1      46.165   1.235   8.348  0.00  0.00    +0.000 C 
ATOM     30  C   UNL     1      46.972   0.547   7.256  0.00  0.00    +0.000 C 
ATOM     31  O   UNL     1      47.991   1.413   6.757  0.00  0.00    +0.000 OA
ATOM     32  C   UNL     1      47.455   2.598   6.177  0.00  0.00    +0.000 C 
ATOM     33  C   UNL     1      46.683   3.405   7.211  0.00  0.00    +0.000 C 
ENDBRANCH  25  28
ENDBRANCH  23  24
ENDBRANCH   4  23
TORSDOF 6
ENDMDL
MODEL 2
REMARK VINA RESULT:    -8.356      2.399      3.851
REMARK INTER + INTRA:         -12.187
REMARK INTER:                 -11.058
REMARK INTRA:                  -1.129
REMARK UNBOUND:                -0.901
REMARK  Name = 
REMARK  6 active torsions:
REMARK  status: ('A' for Active; 'I' for Inactive)
REMARK    1  A    between atoms: C_2  and  C_21
REMARK    2  A    between atoms: N_3  and  C_4
REMARK    3  A    between atoms: C_4  and  C_5
REMARK    4  A    between atoms: C_8  and  C_9
REMARK    5  A    between atoms: C_9  and  N_10
REMARK    6  A    between atoms: C_11  and  C_13
REMARK                            x       y       z     vdW  Elec       q    Type
REMARK                         _______ _______ _______ _____ _____    ______ ____
ROOT
ATOM      1  C   UNL     1      46.246   4.624  13.676  0.00  0.00    +0.000 A 
ATOM      2  C   UNL     1      45.905   3.403  13.079  0.00  0.00    +0.000 A 
ATOM      3  C   UNL     1      45.092   3.365  11.939  0.00  0.00    +0.000 A 
ATOM      4  C   UNL     1      44.622   4.549  11.355  0.00  0.00    +0.000 A 
ATOM      5  C   UNL     1      44.973   5.770  11.947  0.00  0.00    +0.000 A 
ATOM      6  C   UNL     1      45.785   5.808  13.087  0.00  0.00    +0.000 A 
ENDROOT
BRANCH   1   7
ATOM      7  C   UNL     1      47.100   4.658  14.920  0.00  0.00    +0.000 C 
BRANCH   7  10
ATOM      8  O   UNL     1      49.325   5.168  16.481  0.00  0.00    +0.000 OA
ATOM      9  C   UNL     1      48.791   6.116  15.910  0.00  0.00    +0.000 C 
ATOM     10  N   UNL     1      47.640   5.969  15.175  0.00  0.00    +0.000 N 
ATOM     11  H   UNL     1      47.352   6.716  14.550  0.00  0.00    +0.000 HD
BRANCH   9  12
ATOM     12  C   UNL     1      49.340   7.473  16.017  0.00  0.00    +0.000 A 
ATOM     13  C   UNL     1      49.553   8.042  17.265  0.00  0.00    +0.000 A 
ATOM     14  S   UNL     1      50.186   9.624  17.199  0.00  0.00    +0.000 S 
ATOM     15  C   UNL     1      50.246   9.586  15.499  0.00  0.00    +0.000 A 
ATOM     16  N   UNL     1      50.736  10.641  14.792  0.00  0.00    +0.000 NA
ATOM     17  C   UNL     1      50.759  10.458  13.513  0.00  0.00    +0.000 A 
ATOM     18  N   UNL     1      50.328   9.324  12.878  0.00  0.00    +0.000 N 
ATOM     19  C   UNL     1      49.788   8.252  13.545  0.00  0.00    +0.000 A 
ATOM     20  O   UNL     1      49.351   7.278  12.941  0.00  0.00    +0.000 OA
ATOM     21  C   UNL     1      49.763   8.395  14.988  0.00  0.00    +0.000 A 
ATOM     22  H   UNL     1      50.358   9.254  11.869  0.00  0.00    +0.000 HD
ENDBRANCH   9  12
ENDBRANCH   7  10
ENDBRANCH   1   7
BRANCH   4  23
ATOM     23  C   UNL     1      43.761   4.510  10.116  0.00  0.00    +0.000 C 
BRANCH  23  24
ATOM     24  N   UNL     1      44.300   3.630   9.103  0.00  0.00    +0.000 N 
ATOM     25  C   UNL     1      45.367   4.023   8.321  0.00  0.00    +0.000 C 
ATOM     26  O   UNL     1      45.892   5.128   8.428  0.00  0.00    +0.000 OA
ATOM     27  H   UNL     1      44.009   2.661   9.110  0.00  0.00    +0.000 HD
BRANCH  25  28
ATOM     28  C   UNL     1      45.866   2.952   7.351  0.00  0.00    +0.000 C 
ATOM     29  C   UNL     1      46.391   1.709   8.086  0.00  0.00    +0.000 C 
ATOM     30  C   UNL     1      46.980   0.706   7.104  0.00  0.00    +0.000 C 
ATOM     31  O   UNL     1      48.005   1.311   6.316  0.00  0.00    +0.000 OA
ATOM     32  C   UNL     1      47.516   2.399   5.538  0.00  0.00    +0.000 C 
ATOM     33  C   UNL     1      46.965   3.499   6.433  0.00  0.00    +0.000 C 
ENDBRANCH  25  28
ENDBRANCH  23  24
ENDBRANCH   4  23
TORSDOF 6
ENDMDL
MODEL 3
REMARK VINA RESULT:    -8.279      1.392      2.221
REMARK INTER + INTRA:         -12.084
REMARK INTER:                 -11.145
REMARK INTRA:                  -0.939
REMARK UNBOUND:                -0.901
REMARK  Name = 
REMARK  6 active torsions:
REMARK  status: ('A' for Active; 'I' for Inactive)
REMARK    1  A    between atoms: C_2  and  C_21
REMARK    2  A    between atoms: N_3  and  C_4
REMARK    3  A    between atoms: C_4  and  C_5
REMARK    4  A    between atoms: C_8  and  C_9
REMARK    5  A    between atoms: C_9  and  N_10
REMARK    6  A    between atoms: C_11  and  C_13
REMARK                            x       y       z     vdW  Elec       q    Type
REMARK                         _______ _______ _______ _____ _____    ______ ____
ROOT
ATOM      1  C   UNL     1      47.298   5.795  13.446  0.00  0.00    +0.000 A 
ATOM      2  C   UNL     1      46.772   6.521  12.370  0.00  0.00    +0.000 A 
ATOM      3  C   UNL     1      45.783   5.967  11.545  0.00  0.00    +0.000 A 
ATOM      4  C   UNL     1      45.282   4.682  11.794  0.00  0.00    +0.000 A 
ATOM      5  C   UNL     1      45.802   3.960  12.876  0.00  0.00    +0.000 A 
ATOM      6  C   UNL     1      46.790   4.514  13.701  0.00  0.00    +0.000 A 
ENDROOT
BRANCH   1   7
ATOM      7  C   UNL     1      48.381   6.385  14.315  0.00  0.00    +0.000 C 
BRANCH   7  10
ATOM      8  O   UNL     1      50.276   5.842  16.255  0.00  0.00    +0.000 OA
ATOM      9  C   UNL     1      49.116   6.031  16.617  0.00  0.00    +0.000 C 
ATOM     10  N   UNL     1      48.097   6.234  15.720  0.00  0.00    +0.000 N 
ATOM     11  H   UNL     1      47.209   6.596  16.052  0.00  0.00    +0.000 HD
BRANCH   9  12
ATOM     12  C   UNL     1      48.753   6.014  18.039  0.00  0.00    +0.000 A 
ATOM     13  C   UNL     1      48.954   4.866  18.794  0.00  0.00    +0.000 A 
ATOM     14  S   UNL     1      48.466   5.022  20.421  0.00  0.00    +0.000 S 
ATOM     15  C   UNL     1      48.018   6.646  20.187  0.00  0.00    +0.000 A 
ATOM     16  N   UNL     1      47.544   7.397  21.218  0.00  0.00    +0.000 NA
ATOM     17  C   UNL     1      47.281   8.624  20.905  0.00  0.00    +0.000 A 
ATOM     18  N   UNL     1      47.441   9.162  19.656  0.00  0.00    +0.000 N 
ATOM     19  C   UNL     1      47.876   8.433  18.577  0.00  0.00    +0.000 A 
ATOM     20  O   UNL     1      47.945   8.930  17.457  0.00  0.00    +0.000 OA
ATOM     21  C   UNL     1      48.210   7.055  18.880  0.00  0.00    +0.000 A 
ATOM     22  H   UNL     1      47.198  10.128  19.476  0.00  0.00    +0.000 HD
ENDBRANCH   9  12
ENDBRANCH   7  10
ENDBRANCH   1   7
BRANCH   4  23
ATOM     23  C   UNL     1      44.205   4.092  10.917  0.00  0.00    +0.000 C 
BRANCH  23  24
ATOM     24  N   UNL     1      44.750   3.259   9.868  0.00  0.00    +0.000 N 
ATOM     25  C   UNL     1      45.184   3.812   8.680  0.00  0.00    +0.000 C 
ATOM     26  O   UNL     1      45.114   5.016   8.449  0.00  0.00    +0.000 OA
ATOM     27  H   UNL     1      44.981   2.300  10.092  0.00  0.00    +0.000 HD
BRANCH  25  28
ATOM     28  C   UNL     1      45.802   2.809   7.706  0.00  0.00    +0.000 C 
ATOM     29  C   UNL     1      46.163   1.484   8.396  0.00  0.00    +0.000 C 
ATOM     30  C   UNL     1      46.874   0.546   7.429  0.00  0.00    +0.000 C 
ATOM     31  O   UNL     1      48.030   1.172   6.875  0.00  0.00    +0.000 OA
ATOM     32  C   UNL     1      47.707   2.345   6.134  0.00  0.00    +0.000 C 
ATOM     33  C   UNL     1      47.051   3.386   7.030  0.00  0.00    +0.000 C 
ENDBRANCH  25  28
ENDBRANCH  23  24
ENDBRANCH   4  23
TORSDOF 6
ENDMDL
MODEL 4
REMARK VINA RESULT:    -8.230      1.772      2.214
REMARK INTER + INTRA:         -12.017
REMARK INTER:                 -10.997
REMARK INTRA:                  -1.020
REMARK UNBOUND:                -0.901
REMARK  Name = 
REMARK  6 active torsions:
REMARK  status: ('A' for Active; 'I' for Inactive)
REMARK    1  A    between atoms: C_2  and  C_21
REMARK    2  A    between atoms: N_3  and  C_4
REMARK    3  A    between atoms: C_4  and  C_5
REMARK    4  A    between atoms: C_8  and  C_9
REMARK    5  A    between atoms: C_9  and  N_10
REMARK    6  A    between atoms: C_11  and  C_13
REMARK                            x       y       z     vdW  Elec       q    Type
REMARK                         _______ _______ _______ _____ _____    ______ ____
ROOT
ATOM      1  C   UNL     1      46.399   7.536  12.867  0.00  0.00    +0.000 A 
ATOM      2  C   UNL     1      45.356   8.172  12.181  0.00  0.00    +0.000 A 
ATOM      3  C   UNL     1      44.493   7.442  11.353  0.00  0.00    +0.000 A 
ATOM      4  C   UNL     1      44.639   6.056  11.211  0.00  0.00    +0.000 A 
ATOM      5  C   UNL     1      45.676   5.419  11.906  0.00  0.00    +0.000 A 
ATOM      6  C   UNL     1      46.539   6.148  12.734  0.00  0.00    +0.000 A 
ENDROOT
BRANCH   1   7
ATOM      7  C   UNL     1      47.342   8.330  13.737  0.00  0.00    +0.000 C 
BRANCH   7  10
ATOM      8  O   UNL     1      49.742   6.981  14.001  0.00  0.00    +0.000 OA
ATOM      9  C   UNL     1      48.990   7.016  14.973  0.00  0.00    +0.000 C 
ATOM     10  N   UNL     1      47.748   7.598  14.911  0.00  0.00    +0.000 N 
ATOM     11  H   UNL     1      47.251   7.799  15.774  0.00  0.00    +0.000 HD
BRANCH   9  12
ATOM     12  C   UNL     1      49.371   6.400  16.249  0.00  0.00    +0.000 A 
ATOM     13  C   UNL     1      50.356   6.982  17.036  0.00  0.00    +0.000 A 
ATOM     14  S   UNL     1      50.676   6.127  18.477  0.00  0.00    +0.000 S 
ATOM     15  C   UNL     1      49.473   4.978  18.125  0.00  0.00    +0.000 A 
ATOM     16  N   UNL     1      49.197   3.965  18.991  0.00  0.00    +0.000 NA
ATOM     17  C   UNL     1      48.234   3.190  18.615  0.00  0.00    +0.000 A 
ATOM     18  N   UNL     1      47.529   3.331  17.449  0.00  0.00    +0.000 N 
ATOM     19  C   UNL     1      47.798   4.311  16.525  0.00  0.00    +0.000 A 
ATOM     20  O   UNL     1      47.192   4.369  15.460  0.00  0.00    +0.000 OA
ATOM     21  C   UNL     1      48.856   5.225  16.913  0.00  0.00    +0.000 A 
ATOM     22  H   UNL     1      46.796   2.677  17.207  0.00  0.00    +0.000 HD
ENDBRANCH   9  12
ENDBRANCH   7  10
ENDBRANCH   1   7
BRANCH   4  23
ATOM     23  C   UNL     1      43.699   5.267  10.333  0.00  0.00    +0.000 C 
BRANCH  23  24
ATOM     24  N   UNL     1      44.392   4.589   9.260  0.00  0.00    +0.000 N 
ATOM     25  C   UNL     1      44.574   3.221   9.290  0.00  0.00    +0.000 C 
ATOM     26  O   UNL     1      44.182   2.523  10.221  0.00  0.00    +0.000 OA
ATOM     27  H   UNL     1      44.570   5.103   8.407  0.00  0.00    +0.000 HD
BRANCH  25  28
ATOM     28  C   UNL     1      45.258   2.649   8.048  0.00  0.00    +0.000 C 
ATOM     29  C   UNL     1      46.141   1.437   8.384  0.00  0.00    +0.000 C 
ATOM     30  C   UNL     1      46.893   0.955   7.150  0.00  0.00    +0.000 C 
ATOM     31  O   UNL     1      47.662   2.014   6.581  0.00  0.00    +0.000 OA
ATOM     32  C   UNL     1      46.850   3.105   6.158  0.00  0.00    +0.000 C 
ATOM     33  C   UNL     1      46.103   3.712   7.337  0.00  0.00    +0.000 C 
ENDBRANCH  25  28
ENDBRANCH  23  24
ENDBRANCH   4  23
TORSDOF 6
ENDMDL
MODEL 5
REMARK VINA RESULT:    -7.683      1.942      2.356
REMARK INTER + INTRA:         -11.279
REMARK INTER:                 -10.887
REMARK INTRA:                  -0.392
REMARK UNBOUND:                -0.901
REMARK  Name = 
REMARK  6 active torsions:
REMARK  status: ('A' for Active; 'I' for Inactive)
REMARK    1  A    between atoms: C_2  and  C_21
REMARK    2  A    between atoms: N_3  and  C_4
REMARK    3  A    between atoms: C_4  and  C_5
REMARK    4  A    between atoms: C_8  and  C_9
REMARK    5  A    between atoms: C_9  and  N_10
REMARK    6  A    between atoms: C_11  and  C_13
REMARK                            x       y       z     vdW  Elec       q    Type
REMARK                         _______ _______ _______ _____ _____    ______ ____
ROOT
ATOM      1  C   UNL     1      46.565   6.277  12.958  0.00  0.00    +0.000 A 
ATOM      2  C   UNL     1      46.502   4.879  13.014  0.00  0.00    +0.000 A 
ATOM      3  C   UNL     1      45.572   4.172  12.240  0.00  0.00    +0.000 A 
ATOM      4  C   UNL     1      44.702   4.846  11.373  0.00  0.00    +0.000 A 
ATOM      5  C   UNL     1      44.773   6.244  11.310  0.00  0.00    +0.000 A 
ATOM      6  C   UNL     1      45.702   6.952  12.084  0.00  0.00    +0.000 A 
ENDROOT
BRANCH   1   7
ATOM      7  C   UNL     1      47.550   7.036  13.812  0.00  0.00    +0.000 C 
BRANCH   7  10
ATOM      8  O   UNL     1      49.267   7.952  15.778  0.00  0.00    +0.000 OA
ATOM      9  C   UNL     1      48.887   6.785  15.842  0.00  0.00    +0.000 C 
ATOM     10  N   UNL     1      48.095   6.223  14.871  0.00  0.00    +0.000 N 
ATOM     11  H   UNL     1      47.629   5.341  15.060  0.00  0.00    +0.000 HD
BRANCH   9  12
ATOM     12  C   UNL     1      49.295   5.914  16.950  0.00  0.00    +0.000 A 
ATOM     13  C   UNL     1      48.334   5.284  17.730  0.00  0.00    +0.000 A 
ATOM     14  S   UNL     1      48.987   4.321  18.977  0.00  0.00    +0.000 S 
ATOM     15  C   UNL     1      50.578   4.669  18.486  0.00  0.00    +0.000 A 
ATOM     16  N   UNL     1      51.645   4.116  19.124  0.00  0.00    +0.000 NA
ATOM     17  C   UNL     1      52.791   4.437  18.620  0.00  0.00    +0.000 A 
ATOM     18  N   UNL     1      52.967   5.266  17.544  0.00  0.00    +0.000 N 
ATOM     19  C   UNL     1      51.924   5.879  16.894  0.00  0.00    +0.000 A 
ATOM     20  O   UNL     1      52.119   6.668  15.974  0.00  0.00    +0.000 OA
ATOM     21  C   UNL     1      50.612   5.531  17.405  0.00  0.00    +0.000 A 
ATOM     22  H   UNL     1      53.895   5.489  17.211  0.00  0.00    +0.000 HD
ENDBRANCH   9  12
ENDBRANCH   7  10
ENDBRANCH   1   7
BRANCH   4  23
ATOM     23  C   UNL     1      43.713   4.084  10.526  0.00  0.00    +0.000 C 
BRANCH  23  24
ATOM     24  N   UNL     1      44.364   3.259   9.533  0.00  0.00    +0.000 N 
ATOM     25  C   UNL     1      45.131   3.828   8.537  0.00  0.00    +0.000 C 
ATOM     26  O   UNL     1      45.282   5.042   8.431  0.00  0.00    +0.000 OA
ATOM     27  H   UNL     1      44.404   2.262   9.693  0.00  0.00    +0.000 HD
BRANCH  25  28
ATOM     28  C   UNL     1      45.813   2.819   7.612  0.00  0.00    +0.000 C 
ATOM     29  C   UNL     1      46.158   1.511   8.342  0.00  0.00    +0.000 C 
ATOM     30  C   UNL     1      46.931   0.568   7.430  0.00  0.00    +0.000 C 
ATOM     31  O   UNL     1      48.105   1.203   6.924  0.00  0.00    +0.000 OA
ATOM     32  C   UNL     1      47.802   2.358   6.147  0.00  0.00    +0.000 C 
ATOM     33  C   UNL     1      47.086   3.404   6.991  0.00  0.00    +0.000 C 
ENDBRANCH  25  28
ENDBRANCH  23  24
ENDBRANCH   4  23
TORSDOF 6
ENDMDL
MODEL 6
REMARK VINA RESULT:    -7.528      4.971      9.652
REMARK INTER + INTRA:         -11.069
REMARK INTER:                 -10.117
REMARK INTRA:                  -0.952
REMARK UNBOUND:                -0.901
REMARK  Name = 
REMARK  6 active torsions:
REMARK  status: ('A' for Active; 'I' for Inactive)
REMARK    1  A    between atoms: C_2  and  C_21
REMARK    2  A    between atoms: N_3  and  C_4
REMARK    3  A    between atoms: C_4  and  C_5
REMARK    4  A    between atoms: C_8  and  C_9
REMARK    5  A    between atoms: C_9  and  N_10
REMARK    6  A    between atoms: C_11  and  C_13
REMARK                            x       y       z     vdW  Elec       q    Type
REMARK                         _______ _______ _______ _____ _____    ______ ____
ROOT
ATOM      1  C   UNL     1      48.803   3.355  17.064  0.00  0.00    +0.000 A 
ATOM      2  C   UNL     1      49.432   4.547  17.446  0.00  0.00    +0.000 A 
ATOM      3  C   UNL     1      50.792   4.564  17.784  0.00  0.00    +0.000 A 
ATOM      4  C   UNL     1      51.559   3.393  17.724  0.00  0.00    +0.000 A 
ATOM      5  C   UNL     1      50.931   2.203  17.331  0.00  0.00    +0.000 A 
ATOM      6  C   UNL     1      49.572   2.186  16.993  0.00  0.00    +0.000 A 
ENDROOT
BRANCH   1   7
ATOM      7  C   UNL     1      47.333   3.338  16.725  0.00  0.00    +0.000 C 
BRANCH   7  10
ATOM      8  O   UNL     1      47.248   3.106  13.970  0.00  0.00    +0.000 OA
ATOM      9  C   UNL     1      46.889   4.169  14.471  0.00  0.00    +0.000 C 
ATOM     10  N   UNL     1      46.967   4.400  15.823  0.00  0.00    +0.000 N 
ATOM     11  H   UNL     1      46.469   5.191  16.220  0.00  0.00    +0.000 HD
BRANCH   9  12
ATOM     12  C   UNL     1      46.388   5.269  13.639  0.00  0.00    +0.000 A 
ATOM     13  C   UNL     1      47.163   6.404  13.445  0.00  0.00    +0.000 A 
ATOM     14  S   UNL     1      46.420   7.582  12.461  0.00  0.00    +0.000 S 
ATOM     15  C   UNL     1      45.057   6.595  12.216  0.00  0.00    +0.000 A 
ATOM     16  N   UNL     1      44.033   7.001  11.417  0.00  0.00    +0.000 NA
ATOM     17  C   UNL     1      43.082   6.135  11.290  0.00  0.00    +0.000 A 
ATOM     18  N   UNL     1      43.059   4.906  11.896  0.00  0.00    +0.000 N 
ATOM     19  C   UNL     1      44.048   4.471  12.742  0.00  0.00    +0.000 A 
ATOM     20  O   UNL     1      43.965   3.391  13.320  0.00  0.00    +0.000 OA
ATOM     21  C   UNL     1      45.154   5.396  12.899  0.00  0.00    +0.000 A 
ATOM     22  H   UNL     1      42.273   4.283  11.767  0.00  0.00    +0.000 HD
ENDBRANCH   9  12
ENDBRANCH   7  10
ENDBRANCH   1   7
BRANCH   4  23
ATOM     23  C   UNL     1      53.027   3.414  18.071  0.00  0.00    +0.000 C 
BRANCH  23  24
ATOM     24  N   UNL     1      53.700   2.196  17.678  0.00  0.00    +0.000 N 
ATOM     25  C   UNL     1      54.316   1.394  18.617  0.00  0.00    +0.000 C 
ATOM     26  O   UNL     1      54.344   1.679  19.812  0.00  0.00    +0.000 OA
ATOM     27  H   UNL     1      53.547   1.848  16.740  0.00  0.00    +0.000 HD
BRANCH  25  28
ATOM     28  C   UNL     1      54.916   0.107  18.052  0.00  0.00    +0.000 C 
ATOM     29  C   UNL     1      54.544  -0.101  16.575  0.00  0.00    +0.000 C 
ATOM     30  C   UNL     1      55.061  -1.441  16.069  0.00  0.00    +0.000 C 
ATOM     31  O   UNL     1      54.575  -2.510  16.880  0.00  0.00    +0.000 OA
ATOM     32  C   UNL     1      55.002  -2.398  18.234  0.00  0.00    +0.000 C 
ATOM     33  C   UNL     1      54.474  -1.117  18.863  0.00  0.00    +0.000 C 
ENDBRANCH  25  28
ENDBRANCH  23  24
ENDBRANCH   4  23
TORSDOF 6
ENDMDL
MODEL 7
REMARK VINA RESULT:    -7.437      1.571      2.291
REMARK INTER + INTRA:         -10.946
REMARK INTER:                 -10.066
REMARK INTRA:                  -0.881
REMARK UNBOUND:                -0.901
REMARK  Name = 
REMARK  6 active torsions:
REMARK  status: ('A' for Active; 'I' for Inactive)
REMARK    1  A    between atoms: C_2  and  C_21
REMARK    2  A    between atoms: N_3  and  C_4
REMARK    3  A    between atoms: C_4  and  C_5
REMARK    4  A    between atoms: C_8  and  C_9
REMARK    5  A    between atoms: C_9  and  N_10
REMARK    6  A    between atoms: C_11  and  C_13
REMARK                            x       y       z     vdW  Elec       q    Type
REMARK                         _______ _______ _______ _____ _____    ______ ____
ROOT
ATOM      1  C   UNL     1      45.956   7.679  12.529  0.00  0.00    +0.000 A 
ATOM      2  C   UNL     1      44.810   7.785  11.730  0.00  0.00    +0.000 A 
ATOM      3  C   UNL     1      44.198   6.641  11.200  0.00  0.00    +0.000 A 
ATOM      4  C   UNL     1      44.705   5.365  11.477  0.00  0.00    +0.000 A 
ATOM      5  C   UNL     1      45.845   5.259  12.284  0.00  0.00    +0.000 A 
ATOM      6  C   UNL     1      46.457   6.402  12.815  0.00  0.00    +0.000 A 
ENDROOT
BRANCH   1   7
ATOM      7  C   UNL     1      46.627   8.915  13.077  0.00  0.00    +0.000 C 
BRANCH   7  10
ATOM      8  O   UNL     1      49.201   8.543  14.016  0.00  0.00    +0.000 OA
ATOM      9  C   UNL     1      48.298   8.660  14.840  0.00  0.00    +0.000 C 
ATOM     10  N   UNL     1      46.981   8.773  14.467  0.00  0.00    +0.000 N 
ATOM     11  H   UNL     1      46.296   9.081  15.150  0.00  0.00    +0.000 HD
BRANCH   9  12
ATOM     12  C   UNL     1      48.579   8.647  16.281  0.00  0.00    +0.000 A 
ATOM     13  C   UNL     1      48.560   9.832  17.004  0.00  0.00    +0.000 A 
ATOM     14  S   UNL     1      48.918   9.631  18.659  0.00  0.00    +0.000 S 
ATOM     15  C   UNL     1      49.060   7.946  18.479  0.00  0.00    +0.000 A 
ATOM     16  N   UNL     1      49.326   7.147  19.548  0.00  0.00    +0.000 NA
ATOM     17  C   UNL     1      49.367   5.885  19.271  0.00  0.00    +0.000 A 
ATOM     18  N   UNL     1      49.176   5.352  18.024  0.00  0.00    +0.000 N 
ATOM     19  C   UNL     1      48.948   6.121  16.909  0.00  0.00    +0.000 A 
ATOM     20  O   UNL     1      48.847   5.616  15.795  0.00  0.00    +0.000 OA
ATOM     21  C   UNL     1      48.866   7.545  17.169  0.00  0.00    +0.000 A 
ATOM     22  H   UNL     1      49.240   4.354  17.875  0.00  0.00    +0.000 HD
ENDBRANCH   9  12
ENDBRANCH   7  10
ENDBRANCH   1   7
BRANCH   4  23
ATOM     23  C   UNL     1      44.036   4.132  10.920  0.00  0.00    +0.000 C 
BRANCH  23  24
ATOM     24  N   UNL     1      44.952   3.307  10.163  0.00  0.00    +0.000 N 
ATOM     25  C   UNL     1      45.317   3.653   8.878  0.00  0.00    +0.000 C 
ATOM     26  O   UNL     1      44.876   4.650   8.312  0.00  0.00    +0.000 OA
ATOM     27  H   UNL     1      45.462   2.586  10.656  0.00  0.00    +0.000 HD
BRANCH  25  28
ATOM     28  C   UNL     1      46.349   2.720   8.243  0.00  0.00    +0.000 C 
ATOM     29  C   UNL     1      46.640   3.095   6.782  0.00  0.00    +0.000 C 
ATOM     30  C   UNL     1      47.586   2.087   6.142  0.00  0.00    +0.000 C 
ATOM     31  O   UNL     1      47.059   0.765   6.242  0.00  0.00    +0.000 OA
ATOM     32  C   UNL     1      46.886   0.353   7.594  0.00  0.00    +0.000 C 
ATOM     33  C   UNL     1      45.894   1.258   8.311  0.00  0.00    +0.000 C 
ENDBRANCH  25  28
ENDBRANCH  23  24
ENDBRANCH   4  23
TORSDOF 6
ENDMDL
MODEL 8
REMARK VINA RESULT:    -7.282      2.336      2.839
REMARK INTER + INTRA:         -10.737
REMARK INTER:                  -9.605
REMARK INTRA:                  -1.132
REMARK UNBOUND:                -0.901
REMARK  Name = 
REMARK  6 active torsions:
REMARK  status: ('A' for Active; 'I' for Inactive)
REMARK    1  A    between atoms: C_2  and  C_21
REMARK    2  A    between atoms: N_3  and  C_4
REMARK    3  A    between atoms: C_4  and  C_5
REMARK    4  A    between atoms: C_8  and  C_9
REMARK    5  A    between atoms: C_9  and  N_10
REMARK    6  A    between atoms: C_11  and  C_13
REMARK                            x       y       z     vdW  Elec       q    Type
REMARK                         _______ _______ _______ _____ _____    ______ ____
ROOT
ATOM      1  C   UNL     1      47.425   6.829  13.439  0.00  0.00    +0.000 A 
ATOM      2  C   UNL     1      46.562   7.213  12.404  0.00  0.00    +0.000 A 
ATOM      3  C   UNL     1      45.636   6.309  11.870  0.00  0.00    +0.000 A 
ATOM      4  C   UNL     1      45.534   5.006  12.376  0.00  0.00    +0.000 A 
ATOM      5  C   UNL     1      46.390   4.625  13.418  0.00  0.00    +0.000 A 
ATOM      6  C   UNL     1      47.317   5.529  13.952  0.00  0.00    +0.000 A 
ENDROOT
BRANCH   1   7
ATOM      7  C   UNL     1      48.439   7.798  13.993  0.00  0.00    +0.000 C 
BRANCH   7  10
ATOM      8  O   UNL     1      50.471   9.051  15.391  0.00  0.00    +0.000 OA
ATOM      9  C   UNL     1      50.516   7.828  15.281  0.00  0.00    +0.000 C 
ATOM     10  N   UNL     1      49.592   7.129  14.543  0.00  0.00    +0.000 N 
ATOM     11  H   UNL     1      49.532   6.121  14.650  0.00  0.00    +0.000 HD
BRANCH   9  12
ATOM     12  C   UNL     1      51.589   7.048  15.908  0.00  0.00    +0.000 A 
ATOM     13  C   UNL     1      52.916   7.394  15.694  0.00  0.00    +0.000 A 
ATOM     14  S   UNL     1      54.027   6.374  16.491  0.00  0.00    +0.000 S 
ATOM     15  C   UNL     1      52.772   5.466  17.192  0.00  0.00    +0.000 A 
ATOM     16  N   UNL     1      53.042   4.436  18.040  0.00  0.00    +0.000 NA
ATOM     17  C   UNL     1      51.994   3.861  18.529  0.00  0.00    +0.000 A 
ATOM     18  N   UNL     1      50.702   4.215  18.240  0.00  0.00    +0.000 N 
ATOM     19  C   UNL     1      50.381   5.218  17.359  0.00  0.00    +0.000 A 
ATOM     20  O   UNL     1      49.214   5.466  17.072  0.00  0.00    +0.000 OA
ATOM     21  C   UNL     1      51.524   5.915  16.802  0.00  0.00    +0.000 A 
ATOM     22  H   UNL     1      49.926   3.709  18.646  0.00  0.00    +0.000 HD
ENDBRANCH   9  12
ENDBRANCH   7  10
ENDBRANCH   1   7
BRANCH   4  23
ATOM     23  C   UNL     1      44.524   4.036  11.812  0.00  0.00    +0.000 C 
BRANCH  23  24
ATOM     24  N   UNL     1      45.011   3.365  10.628  0.00  0.00    +0.000 N 
ATOM     25  C   UNL     1      44.548   3.717   9.376  0.00  0.00    +0.000 C 
ATOM     26  O   UNL     1      43.699   4.588   9.207  0.00  0.00    +0.000 OA
ATOM     27  H   UNL     1      45.827   2.775  10.716  0.00  0.00    +0.000 HD
BRANCH  25  28
ATOM     28  C   UNL     1      45.216   2.968   8.223  0.00  0.00    +0.000 C 
ATOM     29  C   UNL     1      45.868   1.657   8.690  0.00  0.00    +0.000 C 
ATOM     30  C   UNL     1      46.617   0.986   7.546  0.00  0.00    +0.000 C 
ATOM     31  O   UNL     1      47.585   1.874   6.986  0.00  0.00    +0.000 OA
ATOM     32  C   UNL     1      46.990   3.049   6.445  0.00  0.00    +0.000 C 
ATOM     33  C   UNL     1      46.270   3.838   7.529  0.00  0.00    +0.000 C 
ENDBRANCH  25  28
ENDBRANCH  23  24
ENDBRANCH   4  23
TORSDOF 6
ENDMDL
MODEL 9
REMARK VINA RESULT:    -6.821      5.367      8.692
REMARK INTER + INTRA:         -10.114
REMARK INTER:                  -9.170
REMARK INTRA:                  -0.944
REMARK UNBOUND:                -0.901
REMARK  Name = 
REMARK  6 active torsions:
REMARK  status: ('A' for Active; 'I' for Inactive)
REMARK    1  A    between atoms: C_2  and  C_21
REMARK    2  A    between atoms: N_3  and  C_4
REMARK    3  A    between atoms: C_4  and  C_5
REMARK    4  A    between atoms: C_8  and  C_9
REMARK    5  A    between atoms: C_9  and  N_10
REMARK    6  A    between atoms: C_11  and  C_13
REMARK                            x       y       z     vdW  Elec       q    Type
REMARK                         _______ _______ _______ _____ _____    ______ ____
ROOT
ATOM      1  C   UNL     1      47.383   8.454  12.182  0.00  0.00    +0.000 A 
ATOM      2  C   UNL     1      48.314   7.407  12.197  0.00  0.00    +0.000 A 
ATOM      3  C   UNL     1      49.679   7.658  12.006  0.00  0.00    +0.000 A 
ATOM      4  C   UNL     1      50.146   8.967  11.821  0.00  0.00    +0.000 A 
ATOM      5  C   UNL     1      49.216  10.014  11.816  0.00  0.00    +0.000 A 
ATOM      6  C   UNL     1      47.851   9.763  12.007  0.00  0.00    +0.000 A 
ENDROOT
BRANCH   1   7
ATOM      7  C   UNL     1      45.911   8.176  12.362  0.00  0.00    +0.000 C 
BRANCH   7  10
ATOM      8  O   UNL     1      43.599   7.249  11.159  0.00  0.00    +0.000 OA
ATOM      9  C   UNL     1      44.446   6.424  11.493  0.00  0.00    +0.000 C 
ATOM     10  N   UNL     1      45.590   6.785  12.162  0.00  0.00    +0.000 N 
ATOM     11  H   UNL     1      46.355   6.121  12.229  0.00  0.00    +0.000 HD
BRANCH   9  12
ATOM     12  C   UNL     1      44.259   4.993  11.224  0.00  0.00    +0.000 A 
ATOM     13  C   UNL     1      43.476   4.223  12.072  0.00  0.00    +0.000 A 
ATOM     14  S   UNL     1      43.378   2.583  11.613  0.00  0.00    +0.000 S 
ATOM     15  C   UNL     1      44.337   2.855  10.236  0.00  0.00    +0.000 A 
ATOM     16  N   UNL     1      44.615   1.847   9.365  0.00  0.00    +0.000 NA
ATOM     17  C   UNL     1      45.321   2.206   8.343  0.00  0.00    +0.000 A 
ATOM     18  N   UNL     1      45.781   3.477   8.119  0.00  0.00    +0.000 N 
ATOM     19  C   UNL     1      45.562   4.516   8.990  0.00  0.00    +0.000 A 
ATOM     20  O   UNL     1      46.044   5.627   8.793  0.00  0.00    +0.000 OA
ATOM     21  C   UNL     1      44.751   4.172  10.142  0.00  0.00    +0.000 A 
ATOM     22  H   UNL     1      46.345   3.686   7.306  0.00  0.00    +0.000 HD
ENDBRANCH   9  12
ENDBRANCH   7  10
ENDBRANCH   1   7
BRANCH   4  23
ATOM     23  C   UNL     1      51.619   9.240  11.633  0.00  0.00    +0.000 C 
BRANCH  23  24
ATOM     24  N   UNL     1      52.131   8.662  10.410  0.00  0.00    +0.000 N 
ATOM     25  C   UNL     1      53.291   7.915  10.414  0.00  0.00    +0.000 C 
ATOM     26  O   UNL     1      53.949   7.723  11.433  0.00  0.00    +0.000 OA
ATOM     27  H   UNL     1      51.528   8.654   9.598  0.00  0.00    +0.000 HD
BRANCH  25  28
ATOM     28  C   UNL     1      53.657   7.312   9.058  0.00  0.00    +0.000 C 
ATOM     29  C   UNL     1      52.872   7.963   7.908  0.00  0.00    +0.000 C 
ATOM     30  C   UNL     1      53.175   7.271   6.585  0.00  0.00    +0.000 C 
ATOM     31  O   UNL     1      52.901   5.873   6.671  0.00  0.00    +0.000 OA
ATOM     32  C   UNL     1      53.700   5.226   7.657  0.00  0.00    +0.000 C 
ATOM     33  C   UNL     1      53.421   5.797   9.040  0.00  0.00    +0.000 C 
ENDBRANCH  25  28
ENDBRANCH  23  24
ENDBRANCH   4  23
TORSDOF 6
ENDMDL
