MODEL 1
REMARK VINA RESULT:    -7.600      0.000      0.000
REMARK INTER + INTRA:         -10.477
REMARK INTER:                  -9.822
REMARK INTRA:                  -0.655
REMARK UNBOUND:                -0.655
REMARK  Name = 
REMARK  5 active torsions:
REMARK  status: ('A' for Active; 'I' for Inactive)
REMARK    1  A    between atoms: C_2  and  C_4
REMARK    2  A    between atoms: C_8  and  S_9
REMARK    3  A    between atoms: S_9  and  C_10
REMARK    4  A    between atoms: C_10  and  C_11
REMARK    5  A    between atoms: C_15  and  N_16
REMARK                            x       y       z     vdW  Elec       q    Type
REMARK                         _______ _______ _______ _____ _____    ______ ____
ROOT
ATOM      1  C   UNL     1      45.001   5.666  12.877  0.00  0.00    +0.000 C 
ENDROOT
BRANCH   1   2
ATOM      2  C   UNL     1      44.628   4.511  11.981  0.00  0.00    +0.000 A 
ATOM      3  C   UNL     1      43.502   3.741  12.253  0.00  0.00    +0.000 A 
ATOM      4  N   UNL     1      43.114   2.676  11.520  0.00  0.00    +0.000 NA
ATOM      5  C   UNL     1      43.871   2.385  10.431  0.00  0.00    +0.000 A 
ATOM      6  C   UNL     1      45.017   3.078  10.037  0.00  0.00    +0.000 A 
ATOM      7  C   UNL     1      45.405   4.118  10.882  0.00  0.00    +0.000 A 
BRANCH   6   8
ATOM      8  N   UNL     1      45.663   2.801   8.835  0.00  0.00    +0.000 N 
ATOM      9  C   UNL     1      45.801   1.397   8.429  0.00  0.00    +0.000 C 
ATOM     10  C   UNL     1      47.021   1.276   7.522  0.00  0.00    +0.000 C 
ATOM     11  C   UNL     1      46.914   2.219   6.325  0.00  0.00    +0.000 C 
ATOM     12  C   UNL     1      46.620   3.655   6.764  0.00  0.00    +0.000 C 
ATOM     13  C   UNL     1      45.433   3.735   7.728  0.00  0.00    +0.000 C 
ENDBRANCH   6   8
ENDBRANCH   1   2
BRANCH   1  14
ATOM     14  S   UNL     1      46.680   6.324  12.547  0.00  0.00    +0.000 S 
BRANCH  14  19
ATOM     15  C   UNL     1      47.869   4.682  16.037  0.00  0.00    +0.000 A 
ATOM     16  C   UNL     1      48.728   5.637  16.590  0.00  0.00    +0.000 A 
ATOM     17  C   UNL     1      48.972   6.830  15.908  0.00  0.00    +0.000 A 
ATOM     18  C   UNL     1      48.370   7.070  14.670  0.00  0.00    +0.000 A 
ATOM     19  C   UNL     1      47.531   6.113  14.094  0.00  0.00    +0.000 A 
ATOM     20  C   UNL     1      47.278   4.925  14.790  0.00  0.00    +0.000 A 
BRANCH  15  22
ATOM     21  N   UNL     1      48.546   2.438  16.700  0.00  0.00    +0.000 N 
ATOM     22  C   UNL     1      47.570   3.392  16.714  0.00  0.00    +0.000 C 
ATOM     23  O   UNL     1      46.510   3.201  17.296  0.00  0.00    +0.000 OA
ATOM     24  H   UNL     1      48.365   1.611  17.260  0.00  0.00    +0.000 HD
ATOM     25  H   UNL     1      49.505   2.645  16.468  0.00  0.00    +0.000 HD
ENDBRANCH  15  22
ENDBRANCH  14  19
ENDBRANCH   1  14
TORSDOF 5
ENDMDL
MODEL 2
REMARK VINA RESULT:    -7.203      3.783      4.972
REMARK INTER + INTRA:          -9.963
REMARK INTER:                  -9.281
REMARK INTRA:                  -0.682
REMARK UNBOUND:                -0.655
REMARK  Name = 
REMARK  5 active torsions:
REMARK  status: ('A' for Active; 'I' for Inactive)
REMARK    1  A    between atoms: C_2  and  C_4
REMARK    2  A    between atoms: C_8  and  S_9
REMARK    3  A    between atoms: S_9  and  C_10
REMARK    4  A    between atoms: C_10  and  C_11
REMARK    5  A    between atoms: C_15  and  N_16
REMARK                            x       y       z     vdW  Elec       q    Type
REMARK                         _______ _______ _______ _____ _____    ______ ____
ROOT
ATOM      1  C   UNL     1      44.620   6.078  12.901  0.00  0.00    +0.000 C 
ENDROOT
BRANCH   1   2
ATOM      2  C   UNL     1      44.395   4.792  12.145  0.00  0.00    +0.000 A 
ATOM      3  C   UNL     1      43.428   3.885  12.567  0.00  0.00    +0.000 A 
ATOM      4  N   UNL     1      43.182   2.702  11.966  0.00  0.00    +0.000 NA
ATOM      5  C   UNL     1      43.914   2.425  10.857  0.00  0.00    +0.000 A 
ATOM      6  C   UNL     1      44.907   3.246  10.319  0.00  0.00    +0.000 A 
ATOM      7  C   UNL     1      45.164   4.416  11.034  0.00  0.00    +0.000 A 
BRANCH   6   8
ATOM      8  N   UNL     1      45.523   2.953   9.106  0.00  0.00    +0.000 N 
ATOM      9  C   UNL     1      45.503   1.563   8.635  0.00  0.00    +0.000 C 
ATOM     10  C   UNL     1      46.705   1.346   7.723  0.00  0.00    +0.000 C 
ATOM     11  C   UNL     1      46.710   2.349   6.570  0.00  0.00    +0.000 C 
ATOM     12  C   UNL     1      46.577   3.787   7.075  0.00  0.00    +0.000 C 
ATOM     13  C   UNL     1      45.403   3.956   8.043  0.00  0.00    +0.000 C 
ENDBRANCH   6   8
ENDBRANCH   1   2
BRANCH   1  14
ATOM     14  S   UNL     1      46.336   6.707  12.761  0.00  0.00    +0.000 S 
BRANCH  14  19
ATOM     15  C   UNL     1      44.578  10.105  11.476  0.00  0.00    +0.000 A 
ATOM     16  C   UNL     1      45.622  11.035  11.427  0.00  0.00    +0.000 A 
ATOM     17  C   UNL     1      46.914  10.647  11.786  0.00  0.00    +0.000 A 
ATOM     18  C   UNL     1      47.166   9.338  12.205  0.00  0.00    +0.000 A 
ATOM     19  C   UNL     1      46.128   8.407  12.282  0.00  0.00    +0.000 A 
ATOM     20  C   UNL     1      44.837   8.797  11.906  0.00  0.00    +0.000 A 
BRANCH  15  22
ATOM     21  N   UNL     1      42.408  11.039  12.067  0.00  0.00    +0.000 N 
ATOM     22  C   UNL     1      43.181  10.456  11.105  0.00  0.00    +0.000 C 
ATOM     23  O   UNL     1      42.747  10.269   9.976  0.00  0.00    +0.000 OA
ATOM     24  H   UNL     1      41.498  11.370  11.763  0.00  0.00    +0.000 HD
ATOM     25  H   UNL     1      42.795  11.442  12.907  0.00  0.00    +0.000 HD
ENDBRANCH  15  22
ENDBRANCH  14  19
ENDBRANCH   1  14
TORSDOF 5
ENDMDL
MODEL 3
REMARK VINA RESULT:    -7.077      3.552      4.021
REMARK INTER + INTRA:          -9.801
REMARK INTER:                  -9.198
REMARK INTRA:                  -0.602
REMARK UNBOUND:                -0.655
REMARK  Name = 
REMARK  5 active torsions:
REMARK  status: ('A' for Active; 'I' for Inactive)
REMARK    1  A    between atoms: C_2  and  C_4
REMARK    2  A    between atoms: C_8  and  S_9
REMARK    3  A    between atoms: S_9  and  C_10
REMARK    4  A    between atoms: C_10  and  C_11
REMARK    5  A    between atoms: C_15  and  N_16
REMARK                            x       y       z     vdW  Elec       q    Type
REMARK                         _______ _______ _______ _____ _____    ______ ____
ROOT
ATOM      1  C   UNL     1      44.087   6.551  11.412  0.00  0.00    +0.000 C 
ENDROOT
BRANCH   1   2
ATOM      2  C   UNL     1      44.089   5.096  11.010  0.00  0.00    +0.000 A 
ATOM      3  C   UNL     1      43.219   4.196  11.615  0.00  0.00    +0.000 A 
ATOM      4  N   UNL     1      43.174   2.876  11.334  0.00  0.00    +0.000 NA
ATOM      5  C   UNL     1      44.019   2.437  10.367  0.00  0.00    +0.000 A 
ATOM      6  C   UNL     1      44.935   3.230   9.673  0.00  0.00    +0.000 A 
ATOM      7  C   UNL     1      44.982   4.568  10.067  0.00  0.00    +0.000 A 
BRANCH   6   8
ATOM      8  N   UNL     1      45.673   2.732   8.603  0.00  0.00    +0.000 N 
ATOM      9  C   UNL     1      45.682   1.281   8.382  0.00  0.00    +0.000 C 
ATOM     10  C   UNL     1      46.972   0.912   7.658  0.00  0.00    +0.000 C 
ATOM     11  C   UNL     1      47.118   1.699   6.356  0.00  0.00    +0.000 C 
ATOM     12  C   UNL     1      46.955   3.203   6.587  0.00  0.00    +0.000 C 
ATOM     13  C   UNL     1      45.686   3.534   7.376  0.00  0.00    +0.000 C 
ENDBRANCH   6   8
ENDBRANCH   1   2
BRANCH   1  14
ATOM     14  S   UNL     1      45.120   6.893  12.888  0.00  0.00    +0.000 S 
BRANCH  14  19
ATOM     15  C   UNL     1      48.431   8.968  11.879  0.00  0.00    +0.000 A 
ATOM     16  C   UNL     1      47.965  10.266  11.646  0.00  0.00    +0.000 A 
ATOM     17  C   UNL     1      46.608  10.554  11.796  0.00  0.00    +0.000 A 
ATOM     18  C   UNL     1      45.711   9.548  12.166  0.00  0.00    +0.000 A 
ATOM     19  C   UNL     1      46.159   8.242  12.376  0.00  0.00    +0.000 A 
ATOM     20  C   UNL     1      47.525   7.963  12.239  0.00  0.00    +0.000 A 
BRANCH  15  22
ATOM     21  N   UNL     1      50.189   7.282  11.891  0.00  0.00    +0.000 N 
ATOM     22  C   UNL     1      49.865   8.599  11.736  0.00  0.00    +0.000 C 
ATOM     23  O   UNL     1      50.719   9.429  11.453  0.00  0.00    +0.000 OA
ATOM     24  H   UNL     1      51.151   7.036  11.681  0.00  0.00    +0.000 HD
ATOM     25  H   UNL     1      49.501   6.546  11.864  0.00  0.00    +0.000 HD
ENDBRANCH  15  22
ENDBRANCH  14  19
ENDBRANCH   1  14
TORSDOF 5
ENDMDL
MODEL 4
REMARK VINA RESULT:    -7.070      3.040      3.194
REMARK INTER + INTRA:          -9.792
REMARK INTER:                  -9.065
REMARK INTRA:                  -0.727
REMARK UNBOUND:                -0.655
REMARK  Name = 
REMARK  5 active torsions:
REMARK  status: ('A' for Active; 'I' for Inactive)
REMARK    1  A    between atoms: C_2  and  C_4
REMARK    2  A    between atoms: C_8  and  S_9
REMARK    3  A    between atoms: S_9  and  C_10
REMARK    4  A    between atoms: C_10  and  C_11
REMARK    5  A    between atoms: C_15  and  N_16
REMARK                            x       y       z     vdW  Elec       q    Type
REMARK                         _______ _______ _______ _____ _____    ______ ____
ROOT
ATOM      1  C   UNL     1      44.451   6.058  12.850  0.00  0.00    +0.000 C 
ENDROOT
BRANCH   1   2
ATOM      2  C   UNL     1      44.268   4.775  12.077  0.00  0.00    +0.000 A 
ATOM      3  C   UNL     1      43.296   3.855  12.456  0.00  0.00    +0.000 A 
ATOM      4  N   UNL     1      43.085   2.674  11.837  0.00  0.00    +0.000 NA
ATOM      5  C   UNL     1      43.861   2.413  10.754  0.00  0.00    +0.000 A 
ATOM      6  C   UNL     1      44.865   3.248  10.260  0.00  0.00    +0.000 A 
ATOM      7  C   UNL     1      45.082   4.416  10.993  0.00  0.00    +0.000 A 
BRANCH   6   8
ATOM      8  N   UNL     1      45.528   2.971   9.069  0.00  0.00    +0.000 N 
ATOM      9  C   UNL     1      45.521   1.589   8.575  0.00  0.00    +0.000 C 
ATOM     10  C   UNL     1      46.759   1.379   7.710  0.00  0.00    +0.000 C 
ATOM     11  C   UNL     1      46.817   2.400   6.575  0.00  0.00    +0.000 C 
ATOM     12  C   UNL     1      46.671   3.831   7.097  0.00  0.00    +0.000 C 
ATOM     13  C   UNL     1      45.458   3.992   8.018  0.00  0.00    +0.000 C 
ENDBRANCH   6   8
ENDBRANCH   1   2
BRANCH   1  14
ATOM     14  S   UNL     1      45.121   7.425  11.831  0.00  0.00    +0.000 S 
BRANCH  14  19
ATOM     15  C   UNL     1      48.317   8.613  13.991  0.00  0.00    +0.000 A 
ATOM     16  C   UNL     1      49.405   8.005  13.357  0.00  0.00    +0.000 A 
ATOM     17  C   UNL     1      49.196   7.205  12.233  0.00  0.00    +0.000 A 
ATOM     18  C   UNL     1      47.902   7.001  11.744  0.00  0.00    +0.000 A 
ATOM     19  C   UNL     1      46.805   7.581  12.383  0.00  0.00    +0.000 A 
ATOM     20  C   UNL     1      47.023   8.395  13.502  0.00  0.00    +0.000 A 
BRANCH  15  22
ATOM     21  N   UNL     1      47.690   9.193  16.272  0.00  0.00    +0.000 N 
ATOM     22  C   UNL     1      48.475   9.477  15.192  0.00  0.00    +0.000 C 
ATOM     23  O   UNL     1      49.300  10.380  15.232  0.00  0.00    +0.000 OA
ATOM     24  H   UNL     1      47.891   9.721  17.115  0.00  0.00    +0.000 HD
ATOM     25  H   UNL     1      47.199   8.318  16.373  0.00  0.00    +0.000 HD
ENDBRANCH  15  22
ENDBRANCH  14  19
ENDBRANCH   1  14
TORSDOF 5
ENDMDL
MODEL 5
REMARK VINA RESULT:    -6.911      3.579      4.502
REMARK INTER + INTRA:          -9.586
REMARK INTER:                  -8.910
REMARK INTRA:                  -0.677
REMARK UNBOUND:                -0.655
REMARK  Name = 
REMARK  5 active torsions:
REMARK  status: ('A' for Active; 'I' for Inactive)
REMARK    1  A    between atoms: C_2  and  C_4
REMARK    2  A    between atoms: C_8  and  S_9
REMARK    3  A    between atoms: S_9  and  C_10
REMARK    4  A    between atoms: C_10  and  C_11
REMARK    5  A    between atoms: C_15  and  N_16
REMARK                            x       y       z     vdW  Elec       q    Type
REMARK                         _______ _______ _______ _____ _____    ______ ____
ROOT
ATOM      1  C   UNL     1      43.903   6.072  11.233  0.00  0.00    +0.000 C 
ENDROOT
BRANCH   1   2
ATOM      2  C   UNL     1      44.080   4.679  10.680  0.00  0.00    +0.000 A 
ATOM      3  C   UNL     1      43.348   3.616  11.196  0.00  0.00    +0.000 A 
ATOM      4  N   UNL     1      43.465   2.337  10.778  0.00  0.00    +0.000 NA
ATOM      5  C   UNL     1      44.334   2.113   9.759  0.00  0.00    +0.000 A 
ATOM      6  C   UNL     1      45.124   3.087   9.143  0.00  0.00    +0.000 A 
ATOM      7  C   UNL     1      45.010   4.371   9.676  0.00  0.00    +0.000 A 
BRANCH   6   8
ATOM      8  N   UNL     1      45.893   2.802   8.018  0.00  0.00    +0.000 N 
ATOM      9  C   UNL     1      46.572   3.914   7.342  0.00  0.00    +0.000 C 
ATOM     10  C   UNL     1      46.777   3.535   5.879  0.00  0.00    +0.000 C 
ATOM     11  C   UNL     1      47.547   2.222   5.753  0.00  0.00    +0.000 C 
ATOM     12  C   UNL     1      46.907   1.111   6.588  0.00  0.00    +0.000 C 
ATOM     13  C   UNL     1      46.650   1.547   8.034  0.00  0.00    +0.000 C 
ENDBRANCH   6   8
ENDBRANCH   1   2
BRANCH   1  14
ATOM     14  S   UNL     1      44.709   6.308  12.862  0.00  0.00    +0.000 S 
BRANCH  14  19
ATOM     15  C   UNL     1      47.048   9.489  12.029  0.00  0.00    +0.000 A 
ATOM     16  C   UNL     1      48.317   8.938  11.820  0.00  0.00    +0.000 A 
ATOM     17  C   UNL     1      48.500   7.559  11.925  0.00  0.00    +0.000 A 
ATOM     18  C   UNL     1      47.424   6.727  12.249  0.00  0.00    +0.000 A 
ATOM     19  C   UNL     1      46.158   7.268  12.485  0.00  0.00    +0.000 A 
ATOM     20  C   UNL     1      45.977   8.651  12.363  0.00  0.00    +0.000 A 
BRANCH  15  22
ATOM     21  N   UNL     1      45.518  11.378  12.187  0.00  0.00    +0.000 N 
ATOM     22  C   UNL     1      46.789  10.951  11.931  0.00  0.00    +0.000 C 
ATOM     23  O   UNL     1      47.682  11.748  11.672  0.00  0.00    +0.000 OA
ATOM     24  H   UNL     1      45.389  12.384  12.223  0.00  0.00    +0.000 HD
ATOM     25  H   UNL     1      44.833  10.801  12.649  0.00  0.00    +0.000 HD
ENDBRANCH  15  22
ENDBRANCH  14  19
ENDBRANCH   1  14
TORSDOF 5
ENDMDL
MODEL 6
REMARK VINA RESULT:    -6.786      3.545      7.314
REMARK INTER + INTRA:          -9.424
REMARK INTER:                  -8.529
REMARK INTRA:                  -0.896
REMARK UNBOUND:                -0.655
REMARK  Name = 
REMARK  5 active torsions:
REMARK  status: ('A' for Active; 'I' for Inactive)
REMARK    1  A    between atoms: C_2  and  C_4
REMARK    2  A    between atoms: C_8  and  S_9
REMARK    3  A    between atoms: S_9  and  C_10
REMARK    4  A    between atoms: C_10  and  C_11
REMARK    5  A    between atoms: C_15  and  N_16
REMARK                            x       y       z     vdW  Elec       q    Type
REMARK                         _______ _______ _______ _____ _____    ______ ____
ROOT
ATOM      1  C   UNL     1      43.771   5.463  12.828  0.00  0.00    +0.000 C 
ENDROOT
BRANCH   1   2
ATOM      2  C   UNL     1      45.240   5.726  13.057  0.00  0.00    +0.000 A 
ATOM      3  C   UNL     1      46.041   4.767  13.667  0.00  0.00    +0.000 A 
ATOM      4  N   UNL     1      47.355   4.932  13.933  0.00  0.00    +0.000 NA
ATOM      5  C   UNL     1      47.909   6.105  13.533  0.00  0.00    +0.000 A 
ATOM      6  C   UNL     1      47.225   7.148  12.904  0.00  0.00    +0.000 A 
ATOM      7  C   UNL     1      45.856   6.943  12.730  0.00  0.00    +0.000 A 
BRANCH   6   8
ATOM      8  N   UNL     1      47.890   8.265  12.406  0.00  0.00    +0.000 N 
ATOM      9  C   UNL     1      49.006   8.052  11.478  0.00  0.00    +0.000 C 
ATOM     10  C   UNL     1      49.951   9.244  11.577  0.00  0.00    +0.000 C 
ATOM     11  C   UNL     1      49.213  10.555  11.307  0.00  0.00    +0.000 C 
ATOM     12  C   UNL     1      47.965  10.689  12.182  0.00  0.00    +0.000 C 
ATOM     13  C   UNL     1      47.073   9.446  12.113  0.00  0.00    +0.000 C 
ENDBRANCH   6   8
ENDBRANCH   1   2
BRANCH   1  14
ATOM     14  S   UNL     1      43.276   5.625  11.071  0.00  0.00    +0.000 S 
BRANCH  14  19
ATOM     15  C   UNL     1      45.451   3.407   8.494  0.00  0.00    +0.000 A 
ATOM     16  C   UNL     1      45.204   2.087   8.884  0.00  0.00    +0.000 A 
ATOM     17  C   UNL     1      44.352   1.828   9.958  0.00  0.00    +0.000 A 
ATOM     18  C   UNL     1      43.752   2.883  10.652  0.00  0.00    +0.000 A 
ATOM     19  C   UNL     1      44.010   4.206  10.289  0.00  0.00    +0.000 A 
ATOM     20  C   UNL     1      44.855   4.459   9.201  0.00  0.00    +0.000 A 
BRANCH  15  22
ATOM     21  N   UNL     1      46.347   2.904   6.286  0.00  0.00    +0.000 N 
ATOM     22  C   UNL     1      46.349   3.748   7.358  0.00  0.00    +0.000 C 
ATOM     23  O   UNL     1      47.036   4.762   7.361  0.00  0.00    +0.000 OA
ATOM     24  H   UNL     1      46.881   3.213   5.479  0.00  0.00    +0.000 HD
ATOM     25  H   UNL     1      45.622   2.221   6.133  0.00  0.00    +0.000 HD
ENDBRANCH  15  22
ENDBRANCH  14  19
ENDBRANCH   1  14
TORSDOF 5
ENDMDL
MODEL 7
REMARK VINA RESULT:    -6.546      2.885      4.598
REMARK INTER + INTRA:          -9.114
REMARK INTER:                  -8.308
REMARK INTRA:                  -0.806
REMARK UNBOUND:                -0.655
REMARK  Name = 
REMARK  5 active torsions:
REMARK  status: ('A' for Active; 'I' for Inactive)
REMARK    1  A    between atoms: C_2  and  C_4
REMARK    2  A    between atoms: C_8  and  S_9
REMARK    3  A    between atoms: S_9  and  C_10
REMARK    4  A    between atoms: C_10  and  C_11
REMARK    5  A    between atoms: C_15  and  N_16
REMARK                            x       y       z     vdW  Elec       q    Type
REMARK                         _______ _______ _______ _____ _____    ______ ____
ROOT
ATOM      1  C   UNL     1      49.141   6.993  14.633  0.00  0.00    +0.000 C 
ENDROOT
BRANCH   1   2
ATOM      2  C   UNL     1      47.826   7.176  13.916  0.00  0.00    +0.000 A 
ATOM      3  C   UNL     1      47.283   8.445  13.751  0.00  0.00    +0.000 A 
ATOM      4  N   UNL     1      46.101   8.694  13.147  0.00  0.00    +0.000 NA
ATOM      5  C   UNL     1      45.442   7.618  12.645  0.00  0.00    +0.000 A 
ATOM      6  C   UNL     1      45.875   6.293  12.731  0.00  0.00    +0.000 A 
ATOM      7  C   UNL     1      47.064   6.101  13.435  0.00  0.00    +0.000 A 
BRANCH   6   8
ATOM      8  N   UNL     1      45.210   5.261  12.077  0.00  0.00    +0.000 N 
ATOM      9  C   UNL     1      45.228   5.243  10.610  0.00  0.00    +0.000 C 
ATOM     10  C   UNL     1      43.990   4.501  10.121  0.00  0.00    +0.000 C 
ATOM     11  C   UNL     1      43.918   3.096  10.717  0.00  0.00    +0.000 C 
ATOM     12  C   UNL     1      44.052   3.124  12.241  0.00  0.00    +0.000 C 
ATOM     13  C   UNL     1      45.267   3.935  12.701  0.00  0.00    +0.000 C 
ENDBRANCH   6   8
ENDBRANCH   1   2
BRANCH   1  14
ATOM     14  S   UNL     1      48.980   7.034  16.458  0.00  0.00    +0.000 S 
BRANCH  14  19
ATOM     15  C   UNL     1      49.598   3.140  17.319  0.00  0.00    +0.000 A 
ATOM     16  C   UNL     1      48.313   2.621  17.504  0.00  0.00    +0.000 A 
ATOM     17  C   UNL     1      47.202   3.453  17.367  0.00  0.00    +0.000 A 
ATOM     18  C   UNL     1      47.368   4.806  17.056  0.00  0.00    +0.000 A 
ATOM     19  C   UNL     1      48.647   5.342  16.894  0.00  0.00    +0.000 A 
ATOM     20  C   UNL     1      49.758   4.499  17.018  0.00  0.00    +0.000 A 
BRANCH  15  22
ATOM     21  N   UNL     1      51.804   2.763  18.282  0.00  0.00    +0.000 N 
ATOM     22  C   UNL     1      50.822   2.305  17.451  0.00  0.00    +0.000 C 
ATOM     23  O   UNL     1      50.935   1.231  16.874  0.00  0.00    +0.000 OA
ATOM     24  H   UNL     1      52.579   2.127  18.443  0.00  0.00    +0.000 HD
ATOM     25  H   UNL     1      51.646   3.490  18.962  0.00  0.00    +0.000 HD
ENDBRANCH  15  22
ENDBRANCH  14  19
ENDBRANCH   1  14
TORSDOF 5
ENDMDL
MODEL 8
REMARK VINA RESULT:    -6.453      2.600      7.775
REMARK INTER + INTRA:          -8.994
REMARK INTER:                  -8.225
REMARK INTRA:                  -0.769
REMARK UNBOUND:                -0.655
REMARK  Name = 
REMARK  5 active torsions:
REMARK  status: ('A' for Active; 'I' for Inactive)
REMARK    1  A    between atoms: C_2  and  C_4
REMARK    2  A    between atoms: C_8  and  S_9
REMARK    3  A    between atoms: S_9  and  C_10
REMARK    4  A    between atoms: C_10  and  C_11
REMARK    5  A    between atoms: C_15  and  N_16
REMARK                            x       y       z     vdW  Elec       q    Type
REMARK                         _______ _______ _______ _____ _____    ______ ____
ROOT
ATOM      1  C   UNL     1      46.886   7.035  11.777  0.00  0.00    +0.000 C 
ENDROOT
BRANCH   1   2
ATOM      2  C   UNL     1      47.708   7.114  13.040  0.00  0.00    +0.000 A 
ATOM      3  C   UNL     1      48.517   8.217  13.287  0.00  0.00    +0.000 A 
ATOM      4  N   UNL     1      49.303   8.355  14.376  0.00  0.00    +0.000 NA
ATOM      5  C   UNL     1      49.248   7.353  15.290  0.00  0.00    +0.000 A 
ATOM      6  C   UNL     1      48.474   6.196  15.175  0.00  0.00    +0.000 A 
ATOM      7  C   UNL     1      47.747   6.082  13.990  0.00  0.00    +0.000 A 
BRANCH   6   8
ATOM      8  N   UNL     1      48.371   5.277  16.214  0.00  0.00    +0.000 N 
ATOM      9  C   UNL     1      48.552   5.760  17.589  0.00  0.00    +0.000 C 
ATOM     10  C   UNL     1      49.040   4.599  18.448  0.00  0.00    +0.000 C 
ATOM     11  C   UNL     1      48.078   3.415  18.371  0.00  0.00    +0.000 C 
ATOM     12  C   UNL     1      47.783   3.022  16.922  0.00  0.00    +0.000 C 
ATOM     13  C   UNL     1      47.363   4.222  16.069  0.00  0.00    +0.000 C 
ENDBRANCH   6   8
ENDBRANCH   1   2
BRANCH   1  14
ATOM     14  S   UNL     1      45.081   7.130  12.083  0.00  0.00    +0.000 S 
BRANCH  14  19
ATOM     15  C   UNL     1      44.407   3.500  10.452  0.00  0.00    +0.000 A 
ATOM     16  C   UNL     1      43.682   2.813  11.431  0.00  0.00    +0.000 A 
ATOM     17  C   UNL     1      43.369   3.445  12.635  0.00  0.00    +0.000 A 
ATOM     18  C   UNL     1      43.785   4.758  12.870  0.00  0.00    +0.000 A 
ATOM     19  C   UNL     1      44.532   5.447  11.912  0.00  0.00    +0.000 A 
ATOM     20  C   UNL     1      44.830   4.812  10.700  0.00  0.00    +0.000 A 
BRANCH  15  22
ATOM     21  N   UNL     1      44.372   3.530   8.017  0.00  0.00    +0.000 N 
ATOM     22  C   UNL     1      44.771   2.881   9.150  0.00  0.00    +0.000 C 
ATOM     23  O   UNL     1      45.435   1.854   9.087  0.00  0.00    +0.000 OA
ATOM     24  H   UNL     1      44.725   3.152   7.143  0.00  0.00    +0.000 HD
ATOM     25  H   UNL     1      44.061   4.489   8.020  0.00  0.00    +0.000 HD
ENDBRANCH  15  22
ENDBRANCH  14  19
ENDBRANCH   1  14
TORSDOF 5
ENDMDL
MODEL 9
REMARK VINA RESULT:    -6.451      2.625      4.249
REMARK INTER + INTRA:          -8.991
REMARK INTER:                  -8.198
REMARK INTRA:                  -0.793
REMARK UNBOUND:                -0.655
REMARK  Name = 
REMARK  5 active torsions:
REMARK  status: ('A' for Active; 'I' for Inactive)
REMARK    1  A    between atoms: C_2  and  C_4
REMARK    2  A    between atoms: C_8  and  S_9
REMARK    3  A    between atoms: S_9  and  C_10
REMARK    4  A    between atoms: C_10  and  C_11
REMARK    5  A    between atoms: C_15  and  N_16
REMARK                            x       y       z     vdW  Elec       q    Type
REMARK                         _______ _______ _______ _____ _____    ______ ____
ROOT
ATOM      1  C   UNL     1      49.252   7.200  14.092  0.00  0.00    +0.000 C 
ENDROOT
BRANCH   1   2
ATOM      2  C   UNL     1      47.844   7.289  13.556  0.00  0.00    +0.000 A 
ATOM      3  C   UNL     1      47.170   8.506  13.541  0.00  0.00    +0.000 A 
ATOM      4  N   UNL     1      45.903   8.667  13.105  0.00  0.00    +0.000 NA
ATOM      5  C   UNL     1      45.286   7.560  12.620  0.00  0.00    +0.000 A 
ATOM      6  C   UNL     1      45.845   6.281  12.567  0.00  0.00    +0.000 A 
ATOM      7  C   UNL     1      47.128   6.170  13.105  0.00  0.00    +0.000 A 
BRANCH   6   8
ATOM      8  N   UNL     1      45.198   5.224  11.935  0.00  0.00    +0.000 N 
ATOM      9  C   UNL     1      45.234   5.164  10.469  0.00  0.00    +0.000 C 
ATOM     10  C   UNL     1      44.009   4.395   9.988  0.00  0.00    +0.000 C 
ATOM     11  C   UNL     1      43.944   3.008  10.623  0.00  0.00    +0.000 C 
ATOM     12  C   UNL     1      44.060   3.081  12.148  0.00  0.00    +0.000 C 
ATOM     13  C   UNL     1      45.261   3.917  12.598  0.00  0.00    +0.000 C 
ENDBRANCH   6   8
ENDBRANCH   1   2
BRANCH   1  14
ATOM     14  S   UNL     1      49.501   8.168  15.628  0.00  0.00    +0.000 S 
BRANCH  14  19
ATOM     15  C   UNL     1      48.077   4.887  17.497  0.00  0.00    +0.000 A 
ATOM     16  C   UNL     1      47.691   5.351  18.759  0.00  0.00    +0.000 A 
ATOM     17  C   UNL     1      47.851   6.699  19.082  0.00  0.00    +0.000 A 
ATOM     18  C   UNL     1      48.407   7.585  18.154  0.00  0.00    +0.000 A 
ATOM     19  C   UNL     1      48.820   7.130  16.901  0.00  0.00    +0.000 A 
ATOM     20  C   UNL     1      48.642   5.779  16.577  0.00  0.00    +0.000 A 
BRANCH  15  22
ATOM     21  N   UNL     1      46.893   2.763  17.635  0.00  0.00    +0.000 N 
ATOM     22  C   UNL     1      47.931   3.463  17.093  0.00  0.00    +0.000 C 
ATOM     23  O   UNL     1      48.684   2.944  16.278  0.00  0.00    +0.000 OA
ATOM     24  H   UNL     1      46.746   1.830  17.263  0.00  0.00    +0.000 HD
ATOM     25  H   UNL     1      46.115   3.212  18.094  0.00  0.00    +0.000 HD
ENDBRANCH  15  22
ENDBRANCH  14  19
ENDBRANCH   1  14
TORSDOF 5
ENDMDL
