MODEL 1
REMARK VINA RESULT:    -7.765      0.000      0.000
REMARK INTER + INTRA:         -12.543
REMARK INTER:                 -11.397
REMARK INTRA:                  -1.146
REMARK UNBOUND:                -1.146
REMARK  Name = 
REMARK  9 active torsions:
REMARK  status: ('A' for Active; 'I' for Inactive)
REMARK    1  A    between atoms: C_1  and  C_2
REMARK    2  A    between atoms: C_2  and  C_3
REMARK    3  A    between atoms: C_3  and  N_4
REMARK    4  A    between atoms: C_10  and  C_11
REMARK    5  A    between atoms: N_13  and  C_14
REMARK    6  A    between atoms: C_14  and  C_15
REMARK    7  A    between atoms: C_18  and  C_19
REMARK    8  A    between atoms: C_19  and  N_20
REMARK    9  A    between atoms: C_21  and  C_23
REMARK                            x       y       z     vdW  Elec       q    Type
REMARK                         _______ _______ _______ _____ _____    ______ ____
ROOT
ATOM      1  C   UNL     1      47.536   8.701  13.686  0.00  0.00    +0.000 C 
ENDROOT
BRANCH   1   2
ATOM      2  C   UNL     1      46.640   7.810  12.864  0.00  0.00    +0.000 A 
ATOM      3  C   UNL     1      45.470   8.305  12.274  0.00  0.00    +0.000 A 
ATOM      4  C   UNL     1      44.647   7.469  11.510  0.00  0.00    +0.000 A 
ATOM      5  C   UNL     1      44.967   6.115  11.341  0.00  0.00    +0.000 A 
ATOM      6  C   UNL     1      46.130   5.617  11.944  0.00  0.00    +0.000 A 
ATOM      7  C   UNL     1      46.953   6.453  12.704  0.00  0.00    +0.000 A 
BRANCH   5   8
ATOM      8  C   UNL     1      44.091   5.214  10.512  0.00  0.00    +0.000 C 
BRANCH   8   9
ATOM      9  N   UNL     1      44.803   4.650   9.392  0.00  0.00    +0.000 N 
ATOM     10  C   UNL     1      44.955   3.287   9.251  0.00  0.00    +0.000 C 
ATOM     11  O   UNL     1      44.452   2.464  10.010  0.00  0.00    +0.000 OA
ATOM     12  H   UNL     1      45.268   5.252   8.718  0.00  0.00    +0.000 HD
BRANCH  10  13
ATOM     13  C   UNL     1      45.807   2.856   8.107  0.00  0.00    +0.000 A 
ATOM     14  C   UNL     1      46.317   1.566   8.072  0.00  0.00    +0.000 A 
ATOM     15  N   UNL     1      47.141   1.138   7.079  0.00  0.00    +0.000 NA
ATOM     16  C   UNL     1      47.431   2.060   6.132  0.00  0.00    +0.000 A 
ATOM     17  C   UNL     1      46.910   3.346   6.161  0.00  0.00    +0.000 A 
ATOM     18  N   UNL     1      46.083   3.782   7.142  0.00  0.00    +0.000 NA
ENDBRANCH  10  13
ENDBRANCH   8   9
ENDBRANCH   5   8
ENDBRANCH   1   2
BRANCH   1  21
ATOM     19  C   UNL     1      48.461   8.812  15.963  0.00  0.00    +0.000 C 
ATOM     20  O   UNL     1      49.249   9.707  15.669  0.00  0.00    +0.000 OA
ATOM     21  N   UNL     1      47.652   8.209  15.034  0.00  0.00    +0.000 N 
ATOM     22  H   UNL     1      46.879   7.640  15.362  0.00  0.00    +0.000 HD
BRANCH  19  29
ATOM     23  N   UNL     1      49.039   4.610  17.965  0.00  0.00    +0.000 N 
ATOM     24  C   UNL     1      48.845   4.693  19.330  0.00  0.00    +0.000 A 
ATOM     25  N   UNL     1      48.542   5.766  19.985  0.00  0.00    +0.000 NA
ATOM     26  C   UNL     1      48.409   6.874  19.213  0.00  0.00    +0.000 A 
ATOM     27  S   UNL     1      47.946   8.364  19.891  0.00  0.00    +0.000 S 
ATOM     28  C   UNL     1      47.977   9.132  18.368  0.00  0.00    +0.000 A 
ATOM     29  C   UNL     1      48.372   8.295  17.334  0.00  0.00    +0.000 A 
ATOM     30  C   UNL     1      48.608   6.964  17.849  0.00  0.00    +0.000 A 
ATOM     31  C   UNL     1      48.984   5.742  17.158  0.00  0.00    +0.000 A 
ATOM     32  O   UNL     1      49.253   5.723  15.959  0.00  0.00    +0.000 OA
BRANCH  23  33
ATOM     33  C   UNL     1      49.400   3.337  17.356  0.00  0.00    +0.000 C 
BRANCH  33  35
ATOM     34  C   UNL     1      51.220   1.602  17.352  0.00  0.00    +0.000 C 
ATOM     35  C   UNL     1      50.906   3.088  17.417  0.00  0.00    +0.000 C 
ENDBRANCH  33  35
ENDBRANCH  23  33
ENDBRANCH  19  29
ENDBRANCH   1  21
TORSDOF 8
ENDMDL
MODEL 2
REMARK VINA RESULT:    -7.750      4.944      8.254
REMARK INTER + INTRA:         -12.521
REMARK INTER:                 -11.254
REMARK INTRA:                  -1.267
REMARK UNBOUND:                -1.146
REMARK  Name = 
REMARK  9 active torsions:
REMARK  status: ('A' for Active; 'I' for Inactive)
REMARK    1  A    between atoms: C_1  and  C_2
REMARK    2  A    between atoms: C_2  and  C_3
REMARK    3  A    between atoms: C_3  and  N_4
REMARK    4  A    between atoms: C_10  and  C_11
REMARK    5  A    between atoms: N_13  and  C_14
REMARK    6  A    between atoms: C_14  and  C_15
REMARK    7  A    between atoms: C_18  and  C_19
REMARK    8  A    between atoms: C_19  and  N_20
REMARK    9  A    between atoms: C_21  and  C_23
REMARK                            x       y       z     vdW  Elec       q    Type
REMARK                         _______ _______ _______ _____ _____    ______ ____
ROOT
ATOM      1  C   UNL     1      45.884   8.207  12.888  0.00  0.00    +0.000 C 
ENDROOT
BRANCH   1   2
ATOM      2  C   UNL     1      47.298   8.443  12.421  0.00  0.00    +0.000 A 
ATOM      3  C   UNL     1      47.766   9.736  12.154  0.00  0.00    +0.000 A 
ATOM      4  C   UNL     1      49.082   9.943  11.724  0.00  0.00    +0.000 A 
ATOM      5  C   UNL     1      49.948   8.859  11.530  0.00  0.00    +0.000 A 
ATOM      6  C   UNL     1      49.474   7.564  11.783  0.00  0.00    +0.000 A 
ATOM      7  C   UNL     1      48.161   7.358  12.216  0.00  0.00    +0.000 A 
BRANCH   5   8
ATOM      8  C   UNL     1      51.367   9.077  11.078  0.00  0.00    +0.000 C 
BRANCH   8   9
ATOM      9  N   UNL     1      51.870   7.959  10.319  0.00  0.00    +0.000 N 
ATOM     10  C   UNL     1      52.739   8.140   9.263  0.00  0.00    +0.000 C 
ATOM     11  O   UNL     1      53.194   9.231   8.937  0.00  0.00    +0.000 OA
ATOM     12  H   UNL     1      51.540   7.016  10.505  0.00  0.00    +0.000 HD
BRANCH  10  13
ATOM     13  C   UNL     1      53.086   6.905   8.506  0.00  0.00    +0.000 A 
ATOM     14  C   UNL     1      52.385   6.582   7.352  0.00  0.00    +0.000 A 
ATOM     15  N   UNL     1      52.624   5.442   6.653  0.00  0.00    +0.000 NA
ATOM     16  C   UNL     1      53.591   4.644   7.162  0.00  0.00    +0.000 A 
ATOM     17  C   UNL     1      54.301   4.974   8.309  0.00  0.00    +0.000 A 
ATOM     18  N   UNL     1      54.074   6.110   9.012  0.00  0.00    +0.000 NA
ENDBRANCH  10  13
ENDBRANCH   8   9
ENDBRANCH   5   8
ENDBRANCH   1   2
BRANCH   1  21
ATOM     19  C   UNL     1      44.461   6.568  11.728  0.00  0.00    +0.000 C 
ATOM     20  O   UNL     1      43.748   7.439  11.238  0.00  0.00    +0.000 OA
ATOM     21  N   UNL     1      45.471   6.856  12.611  0.00  0.00    +0.000 N 
ATOM     22  H   UNL     1      46.158   6.136  12.812  0.00  0.00    +0.000 HD
BRANCH  19  29
ATOM     23  N   UNL     1      45.823   3.644   8.324  0.00  0.00    +0.000 N 
ATOM     24  C   UNL     1      45.332   2.372   8.551  0.00  0.00    +0.000 A 
ATOM     25  N   UNL     1      44.594   2.017   9.552  0.00  0.00    +0.000 NA
ATOM     26  C   UNL     1      44.305   3.022  10.418  0.00  0.00    +0.000 A 
ATOM     27  S   UNL     1      43.290   2.758  11.758  0.00  0.00    +0.000 S 
ATOM     28  C   UNL     1      43.412   4.388  12.244  0.00  0.00    +0.000 A 
ATOM     29  C   UNL     1      44.244   5.147  11.432  0.00  0.00    +0.000 A 
ATOM     30  C   UNL     1      44.750   4.328  10.353  0.00  0.00    +0.000 A 
ATOM     31  C   UNL     1      45.606   4.675   9.232  0.00  0.00    +0.000 A 
ATOM     32  O   UNL     1      46.114   5.787   9.114  0.00  0.00    +0.000 OA
BRANCH  23  33
ATOM     33  C   UNL     1      46.663   3.902   7.163  0.00  0.00    +0.000 C 
BRANCH  33  35
ATOM     34  C   UNL     1      47.416   2.414   5.280  0.00  0.00    +0.000 C 
ATOM     35  C   UNL     1      47.487   2.674   6.776  0.00  0.00    +0.000 C 
ENDBRANCH  33  35
ENDBRANCH  23  33
ENDBRANCH  19  29
ENDBRANCH   1  21
TORSDOF 8
ENDMDL
MODEL 3
REMARK VINA RESULT:    -7.570      3.805      9.961
REMARK INTER + INTRA:         -12.257
REMARK INTER:                 -11.642
REMARK INTRA:                  -0.615
REMARK UNBOUND:                -1.146
REMARK  Name = 
REMARK  9 active torsions:
REMARK  status: ('A' for Active; 'I' for Inactive)
REMARK    1  A    between atoms: C_1  and  C_2
REMARK    2  A    between atoms: C_2  and  C_3
REMARK    3  A    between atoms: C_3  and  N_4
REMARK    4  A    between atoms: C_10  and  C_11
REMARK    5  A    between atoms: N_13  and  C_14
REMARK    6  A    between atoms: C_14  and  C_15
REMARK    7  A    between atoms: C_18  and  C_19
REMARK    8  A    between atoms: C_19  and  N_20
REMARK    9  A    between atoms: C_21  and  C_23
REMARK                            x       y       z     vdW  Elec       q    Type
REMARK                         _______ _______ _______ _____ _____    ______ ____
ROOT
ATOM      1  C   UNL     1      47.391   3.795  17.265  0.00  0.00    +0.000 C 
ENDROOT
BRANCH   1   2
ATOM      2  C   UNL     1      48.856   3.549  17.526  0.00  0.00    +0.000 A 
ATOM      3  C   UNL     1      49.663   4.535  18.108  0.00  0.00    +0.000 A 
ATOM      4  C   UNL     1      51.021   4.294  18.349  0.00  0.00    +0.000 A 
ATOM      5  C   UNL     1      51.603   3.070  17.991  0.00  0.00    +0.000 A 
ATOM      6  C   UNL     1      50.798   2.090  17.395  0.00  0.00    +0.000 A 
ATOM      7  C   UNL     1      49.441   2.330  17.157  0.00  0.00    +0.000 A 
BRANCH   5   8
ATOM      8  C   UNL     1      53.060   2.802  18.258  0.00  0.00    +0.000 C 
BRANCH   8   9
ATOM      9  N   UNL     1      53.318   1.404  18.493  0.00  0.00    +0.000 N 
ATOM     10  C   UNL     1      54.260   0.714  17.758  0.00  0.00    +0.000 C 
ATOM     11  O   UNL     1      54.982   1.237  16.917  0.00  0.00    +0.000 OA
ATOM     12  H   UNL     1      52.759   0.879  19.160  0.00  0.00    +0.000 HD
BRANCH  10  13
ATOM     13  C   UNL     1      54.338  -0.748  18.037  0.00  0.00    +0.000 A 
ATOM     14  C   UNL     1      55.001  -1.586  17.151  0.00  0.00    +0.000 A 
ATOM     15  N   UNL     1      55.057  -2.932  17.329  0.00  0.00    +0.000 NA
ATOM     16  C   UNL     1      54.419  -3.396  18.428  0.00  0.00    +0.000 A 
ATOM     17  C   UNL     1      53.767  -2.556  19.320  0.00  0.00    +0.000 A 
ATOM     18  N   UNL     1      53.708  -1.212  19.156  0.00  0.00    +0.000 NA
ENDBRANCH  10  13
ENDBRANCH   8   9
ENDBRANCH   5   8
ENDBRANCH   1   2
BRANCH   1  21
ATOM     19  C   UNL     1      47.214   4.184  14.842  0.00  0.00    +0.000 C 
ATOM     20  O   UNL     1      47.519   3.026  14.569  0.00  0.00    +0.000 OA
ATOM     21  N   UNL     1      47.212   4.661  16.128  0.00  0.00    +0.000 N 
ATOM     22  H   UNL     1      46.749   5.544  16.316  0.00  0.00    +0.000 HD
BRANCH  19  29
ATOM     23  N   UNL     1      44.765   4.018  10.845  0.00  0.00    +0.000 N 
ATOM     24  C   UNL     1      44.750   5.257  10.233  0.00  0.00    +0.000 A 
ATOM     25  N   UNL     1      45.328   6.324  10.680  0.00  0.00    +0.000 NA
ATOM     26  C   UNL     1      45.995   6.153  11.849  0.00  0.00    +0.000 A 
ATOM     27  S   UNL     1      46.873   7.430  12.552  0.00  0.00    +0.000 S 
ATOM     28  C   UNL     1      47.384   6.442  13.845  0.00  0.00    +0.000 A 
ATOM     29  C   UNL     1      46.875   5.152  13.791  0.00  0.00    +0.000 A 
ATOM     30  C   UNL     1      46.070   4.995  12.599  0.00  0.00    +0.000 A 
ATOM     31  C   UNL     1      45.377   3.830  12.080  0.00  0.00    +0.000 A 
ATOM     32  O   UNL     1      45.319   2.771  12.700  0.00  0.00    +0.000 OA
BRANCH  23  33
ATOM     33  C   UNL     1      44.052   2.900  10.243  0.00  0.00    +0.000 C 
BRANCH  33  35
ATOM     34  C   UNL     1      45.767   1.915   8.690  0.00  0.00    +0.000 C 
ATOM     35  C   UNL     1      44.461   2.687   8.786  0.00  0.00    +0.000 C 
ENDBRANCH  33  35
ENDBRANCH  23  33
ENDBRANCH  19  29
ENDBRANCH   1  21
TORSDOF 8
ENDMDL
MODEL 4
REMARK VINA RESULT:    -7.158      1.584      3.548
REMARK INTER + INTRA:         -11.652
REMARK INTER:                 -10.555
REMARK INTRA:                  -1.098
REMARK UNBOUND:                -1.146
REMARK  Name = 
REMARK  9 active torsions:
REMARK  status: ('A' for Active; 'I' for Inactive)
REMARK    1  A    between atoms: C_1  and  C_2
REMARK    2  A    between atoms: C_2  and  C_3
REMARK    3  A    between atoms: C_3  and  N_4
REMARK    4  A    between atoms: C_10  and  C_11
REMARK    5  A    between atoms: N_13  and  C_14
REMARK    6  A    between atoms: C_14  and  C_15
REMARK    7  A    between atoms: C_18  and  C_19
REMARK    8  A    between atoms: C_19  and  N_20
REMARK    9  A    between atoms: C_21  and  C_23
REMARK                            x       y       z     vdW  Elec       q    Type
REMARK                         _______ _______ _______ _____ _____    ______ ____
ROOT
ATOM      1  C   UNL     1      48.146   7.951  14.176  0.00  0.00    +0.000 C 
ENDROOT
BRANCH   1   2
ATOM      2  C   UNL     1      47.149   7.314  13.241  0.00  0.00    +0.000 A 
ATOM      3  C   UNL     1      46.175   8.082  12.590  0.00  0.00    +0.000 A 
ATOM      4  C   UNL     1      45.256   7.481  11.722  0.00  0.00    +0.000 A 
ATOM      5  C   UNL     1      45.278   6.096  11.507  0.00  0.00    +0.000 A 
ATOM      6  C   UNL     1      46.242   5.327  12.172  0.00  0.00    +0.000 A 
ATOM      7  C   UNL     1      47.162   5.928  13.036  0.00  0.00    +0.000 A 
BRANCH   5   8
ATOM      8  C   UNL     1      44.298   5.446  10.567  0.00  0.00    +0.000 C 
BRANCH   8   9
ATOM      9  N   UNL     1      44.960   4.783   9.472  0.00  0.00    +0.000 N 
ATOM     10  C   UNL     1      44.866   3.418   9.297  0.00  0.00    +0.000 C 
ATOM     11  O   UNL     1      44.175   2.688  10.000  0.00  0.00    +0.000 OA
ATOM     12  H   UNL     1      45.568   5.300   8.843  0.00  0.00    +0.000 HD
BRANCH  10  13
ATOM     13  C   UNL     1      45.691   2.860   8.189  0.00  0.00    +0.000 A 
ATOM     14  C   UNL     1      46.154   1.553   8.262  0.00  0.00    +0.000 A 
ATOM     15  N   UNL     1      46.953   1.012   7.306  0.00  0.00    +0.000 NA
ATOM     16  C   UNL     1      47.268   1.837   6.281  0.00  0.00    +0.000 A 
ATOM     17  C   UNL     1      46.795   3.139   6.202  0.00  0.00    +0.000 A 
ATOM     18  N   UNL     1      45.993   3.688   7.147  0.00  0.00    +0.000 NA
ENDBRANCH  10  13
ENDBRANCH   8   9
ENDBRANCH   5   8
ENDBRANCH   1   2
BRANCH   1  21
ATOM     19  C   UNL     1      49.083   6.781  16.127  0.00  0.00    +0.000 C 
ATOM     20  O   UNL     1      50.133   6.520  15.547  0.00  0.00    +0.000 OA
ATOM     21  N   UNL     1      48.031   7.400  15.501  0.00  0.00    +0.000 N 
ATOM     22  H   UNL     1      47.285   7.782  16.073  0.00  0.00    +0.000 HD
BRANCH  19  29
ATOM     23  N   UNL     1      47.975   9.080  20.062  0.00  0.00    +0.000 N 
ATOM     24  C   UNL     1      47.882   8.203  21.126  0.00  0.00    +0.000 A 
ATOM     25  N   UNL     1      48.074   6.926  21.069  0.00  0.00    +0.000 NA
ATOM     26  C   UNL     1      48.398   6.463  19.835  0.00  0.00    +0.000 A 
ATOM     27  S   UNL     1      48.754   4.818  19.582  0.00  0.00    +0.000 S 
ATOM     28  C   UNL     1      49.063   5.082  17.925  0.00  0.00    +0.000 A 
ATOM     29  C   UNL     1      48.868   6.397  17.528  0.00  0.00    +0.000 A 
ATOM     30  C   UNL     1      48.490   7.200  18.670  0.00  0.00    +0.000 A 
ATOM     31  C   UNL     1      48.231   8.625  18.773  0.00  0.00    +0.000 A 
ATOM     32  O   UNL     1      48.217   9.362  17.789  0.00  0.00    +0.000 OA
BRANCH  23  33
ATOM     33  C   UNL     1      47.711  10.498  20.262  0.00  0.00    +0.000 C 
BRANCH  33  35
ATOM     34  C   UNL     1      45.481  10.754  21.396  0.00  0.00    +0.000 C 
ATOM     35  C   UNL     1      46.231  10.830  20.076  0.00  0.00    +0.000 C 
ENDBRANCH  33  35
ENDBRANCH  23  33
ENDBRANCH  19  29
ENDBRANCH   1  21
TORSDOF 8
ENDMDL
MODEL 5
REMARK VINA RESULT:    -6.908      4.139      6.486
REMARK INTER + INTRA:         -11.285
REMARK INTER:                 -10.430
REMARK INTRA:                  -0.855
REMARK UNBOUND:                -1.146
REMARK  Name = 
REMARK  9 active torsions:
REMARK  status: ('A' for Active; 'I' for Inactive)
REMARK    1  A    between atoms: C_1  and  C_2
REMARK    2  A    between atoms: C_2  and  C_3
REMARK    3  A    between atoms: C_3  and  N_4
REMARK    4  A    between atoms: C_10  and  C_11
REMARK    5  A    between atoms: N_13  and  C_14
REMARK    6  A    between atoms: C_14  and  C_15
REMARK    7  A    between atoms: C_18  and  C_19
REMARK    8  A    between atoms: C_19  and  N_20
REMARK    9  A    between atoms: C_21  and  C_23
REMARK                            x       y       z     vdW  Elec       q    Type
REMARK                         _______ _______ _______ _____ _____    ______ ____
ROOT
ATOM      1  C   UNL     1      46.358   4.585  14.045  0.00  0.00    +0.000 C 
ENDROOT
BRANCH   1   2
ATOM      2  C   UNL     1      45.865   5.776  13.262  0.00  0.00    +0.000 A 
ATOM      3  C   UNL     1      44.707   5.698  12.479  0.00  0.00    +0.000 A 
ATOM      4  C   UNL     1      44.257   6.811  11.758  0.00  0.00    +0.000 A 
ATOM      5  C   UNL     1      44.970   8.016  11.789  0.00  0.00    +0.000 A 
ATOM      6  C   UNL     1      46.138   8.089  12.561  0.00  0.00    +0.000 A 
ATOM      7  C   UNL     1      46.585   6.978  13.283  0.00  0.00    +0.000 A 
BRANCH   5   8
ATOM      8  C   UNL     1      44.485   9.219  11.024  0.00  0.00    +0.000 C 
BRANCH   8   9
ATOM      9  N   UNL     1      43.124   9.558  11.357  0.00  0.00    +0.000 N 
ATOM     10  C   UNL     1      42.704  10.870  11.414  0.00  0.00    +0.000 C 
ATOM     11  O   UNL     1      43.418  11.825  11.127  0.00  0.00    +0.000 OA
ATOM     12  H   UNL     1      42.461   8.835  11.625  0.00  0.00    +0.000 HD
BRANCH  10  13
ATOM     13  C   UNL     1      41.302  11.070  11.877  0.00  0.00    +0.000 A 
ATOM     14  C   UNL     1      40.265  10.386  11.258  0.00  0.00    +0.000 A 
ATOM     15  N   UNL     1      38.964  10.571  11.605  0.00  0.00    +0.000 NA
ATOM     16  C   UNL     1      38.753  11.469  12.595  0.00  0.00    +0.000 A 
ATOM     17  C   UNL     1      39.791  12.143  13.223  0.00  0.00    +0.000 A 
ATOM     18  N   UNL     1      41.092  11.963  12.888  0.00  0.00    +0.000 NA
ENDBRANCH  10  13
ENDBRANCH   8   9
ENDBRANCH   5   8
ENDBRANCH   1   2
BRANCH   1  21
ATOM     19  C   UNL     1      47.455   4.342  16.234  0.00  0.00    +0.000 C 
ATOM     20  O   UNL     1      46.651   3.496  16.615  0.00  0.00    +0.000 OA
ATOM     21  N   UNL     1      47.331   4.985  15.028  0.00  0.00    +0.000 N 
ATOM     22  H   UNL     1      48.127   5.505  14.673  0.00  0.00    +0.000 HD
BRANCH  19  29
ATOM     23  N   UNL     1      51.443   2.334  17.667  0.00  0.00    +0.000 N 
ATOM     24  C   UNL     1      52.169   3.205  18.457  0.00  0.00    +0.000 A 
ATOM     25  N   UNL     1      51.815   4.408  18.773  0.00  0.00    +0.000 NA
ATOM     26  C   UNL     1      50.617   4.791  18.263  0.00  0.00    +0.000 A 
ATOM     27  S   UNL     1      49.957   6.316  18.630  0.00  0.00    +0.000 S 
ATOM     28  C   UNL     1      48.559   5.997  17.706  0.00  0.00    +0.000 A 
ATOM     29  C   UNL     1      48.582   4.759  17.078  0.00  0.00    +0.000 A 
ATOM     30  C   UNL     1      49.796   4.057  17.430  0.00  0.00    +0.000 A 
ATOM     31  C   UNL     1      50.249   2.724  17.069  0.00  0.00    +0.000 A 
ATOM     32  O   UNL     1      49.633   2.013  16.279  0.00  0.00    +0.000 OA
BRANCH  23  33
ATOM     33  C   UNL     1      51.971   1.009  17.370  0.00  0.00    +0.000 C 
BRANCH  33  35
ATOM     34  C   UNL     1      54.209   0.083  16.693  0.00  0.00    +0.000 C 
ATOM     35  C   UNL     1      53.452   0.897  17.730  0.00  0.00    +0.000 C 
ENDBRANCH  33  35
ENDBRANCH  23  33
ENDBRANCH  19  29
ENDBRANCH   1  21
TORSDOF 8
ENDMDL
MODEL 6
REMARK VINA RESULT:    -6.868      4.225      9.451
REMARK INTER + INTRA:         -11.227
REMARK INTER:                  -9.811
REMARK INTRA:                  -1.415
REMARK UNBOUND:                -1.146
REMARK  Name = 
REMARK  9 active torsions:
REMARK  status: ('A' for Active; 'I' for Inactive)
REMARK    1  A    between atoms: C_1  and  C_2
REMARK    2  A    between atoms: C_2  and  C_3
REMARK    3  A    between atoms: C_3  and  N_4
REMARK    4  A    between atoms: C_10  and  C_11
REMARK    5  A    between atoms: N_13  and  C_14
REMARK    6  A    between atoms: C_14  and  C_15
REMARK    7  A    between atoms: C_18  and  C_19
REMARK    8  A    between atoms: C_19  and  N_20
REMARK    9  A    between atoms: C_21  and  C_23
REMARK                            x       y       z     vdW  Elec       q    Type
REMARK                         _______ _______ _______ _____ _____    ______ ____
ROOT
ATOM      1  C   UNL     1      47.203   3.508  16.868  0.00  0.00    +0.000 C 
ENDROOT
BRANCH   1   2
ATOM      2  C   UNL     1      48.666   3.331  17.188  0.00  0.00    +0.000 A 
ATOM      3  C   UNL     1      49.401   4.352  17.804  0.00  0.00    +0.000 A 
ATOM      4  C   UNL     1      50.758   4.175  18.099  0.00  0.00    +0.000 A 
ATOM      5  C   UNL     1      51.411   2.982  17.762  0.00  0.00    +0.000 A 
ATOM      6  C   UNL     1      50.679   1.967  17.131  0.00  0.00    +0.000 A 
ATOM      7  C   UNL     1      49.323   2.143  16.840  0.00  0.00    +0.000 A 
BRANCH   5   8
ATOM      8  C   UNL     1      52.868   2.782  18.086  0.00  0.00    +0.000 C 
BRANCH   8   9
ATOM      9  N   UNL     1      53.173   1.403  18.374  0.00  0.00    +0.000 N 
ATOM     10  C   UNL     1      54.166   0.730  17.693  0.00  0.00    +0.000 C 
ATOM     11  O   UNL     1      54.894   1.257  16.858  0.00  0.00    +0.000 OA
ATOM     12  H   UNL     1      52.614   0.876  19.040  0.00  0.00    +0.000 HD
BRANCH  10  13
ATOM     13  C   UNL     1      54.293  -0.718  18.020  0.00  0.00    +0.000 A 
ATOM     14  C   UNL     1      54.968  -1.566  17.153  0.00  0.00    +0.000 A 
ATOM     15  N   UNL     1      55.068  -2.903  17.376  0.00  0.00    +0.000 NA
ATOM     16  C   UNL     1      54.461  -3.347  18.500  0.00  0.00    +0.000 A 
ATOM     17  C   UNL     1      53.797  -2.497  19.374  0.00  0.00    +0.000 A 
ATOM     18  N   UNL     1      53.695  -1.162  19.164  0.00  0.00    +0.000 NA
ENDBRANCH  10  13
ENDBRANCH   8   9
ENDBRANCH   5   8
ENDBRANCH   1   2
BRANCH   1  21
ATOM     19  C   UNL     1      46.963   4.271  14.541  0.00  0.00    +0.000 C 
ATOM     20  O   UNL     1      47.226   3.163  14.083  0.00  0.00    +0.000 OA
ATOM     21  N   UNL     1      47.015   4.543  15.885  0.00  0.00    +0.000 N 
ATOM     22  H   UNL     1      46.584   5.397  16.222  0.00  0.00    +0.000 HD
BRANCH  19  29
ATOM     23  N   UNL     1      48.863   8.462  13.636  0.00  0.00    +0.000 N 
ATOM     24  C   UNL     1      48.120   9.137  12.687  0.00  0.00    +0.000 A 
ATOM     25  N   UNL     1      47.046   8.697  12.118  0.00  0.00    +0.000 NA
ATOM     26  C   UNL     1      46.659   7.463  12.532  0.00  0.00    +0.000 A 
ATOM     27  S   UNL     1      45.230   6.750  11.944  0.00  0.00    +0.000 S 
ATOM     28  C   UNL     1      45.455   5.365  12.913  0.00  0.00    +0.000 A 
ATOM     29  C   UNL     1      46.622   5.398  13.664  0.00  0.00    +0.000 A 
ATOM     30  C   UNL     1      47.311   6.649  13.437  0.00  0.00    +0.000 A 
ATOM     31  C   UNL     1      48.534   7.168  14.025  0.00  0.00    +0.000 A 
ATOM     32  O   UNL     1      49.230   6.501  14.787  0.00  0.00    +0.000 OA
BRANCH  23  33
ATOM     33  C   UNL     1      50.070   9.068  14.182  0.00  0.00    +0.000 C 
BRANCH  33  35
ATOM     34  C   UNL     1      52.475   8.409  13.858  0.00  0.00    +0.000 C 
ATOM     35  C   UNL     1      51.237   8.991  13.197  0.00  0.00    +0.000 C 
ENDBRANCH  33  35
ENDBRANCH  23  33
ENDBRANCH  19  29
ENDBRANCH   1  21
TORSDOF 8
ENDMDL
MODEL 7
REMARK VINA RESULT:    -6.835      2.166      2.743
REMARK INTER + INTRA:         -11.179
REMARK INTER:                  -9.935
REMARK INTRA:                  -1.244
REMARK UNBOUND:                -1.146
REMARK  Name = 
REMARK  9 active torsions:
REMARK  status: ('A' for Active; 'I' for Inactive)
REMARK    1  A    between atoms: C_1  and  C_2
REMARK    2  A    between atoms: C_2  and  C_3
REMARK    3  A    between atoms: C_3  and  N_4
REMARK    4  A    between atoms: C_10  and  C_11
REMARK    5  A    between atoms: N_13  and  C_14
REMARK    6  A    between atoms: C_14  and  C_15
REMARK    7  A    between atoms: C_18  and  C_19
REMARK    8  A    between atoms: C_19  and  N_20
REMARK    9  A    between atoms: C_21  and  C_23
REMARK                            x       y       z     vdW  Elec       q    Type
REMARK                         _______ _______ _______ _____ _____    ______ ____
ROOT
ATOM      1  C   UNL     1      49.260   9.042  14.139  0.00  0.00    +0.000 C 
ENDROOT
BRANCH   1   2
ATOM      2  C   UNL     1      48.092   8.435  13.404  0.00  0.00    +0.000 A 
ATOM      3  C   UNL     1      46.926   9.173  13.162  0.00  0.00    +0.000 A 
ATOM      4  C   UNL     1      45.849   8.600  12.475  0.00  0.00    +0.000 A 
ATOM      5  C   UNL     1      45.907   7.270  12.039  0.00  0.00    +0.000 A 
ATOM      6  C   UNL     1      47.068   6.527  12.296  0.00  0.00    +0.000 A 
ATOM      7  C   UNL     1      48.145   7.101  12.979  0.00  0.00    +0.000 A 
BRANCH   5   8
ATOM      8  C   UNL     1      44.756   6.652  11.292  0.00  0.00    +0.000 C 
BRANCH   8   9
ATOM      9  N   UNL     1      45.202   5.714  10.293  0.00  0.00    +0.000 N 
ATOM     10  C   UNL     1      44.505   4.551  10.037  0.00  0.00    +0.000 C 
ATOM     11  O   UNL     1      43.442   4.264  10.576  0.00  0.00    +0.000 OA
ATOM     12  H   UNL     1      46.081   5.857   9.802  0.00  0.00    +0.000 HD
BRANCH  10  13
ATOM     13  C   UNL     1      45.144   3.628   9.058  0.00  0.00    +0.000 A 
ATOM     14  C   UNL     1      45.224   2.271   9.338  0.00  0.00    +0.000 A 
ATOM     15  N   UNL     1      45.843   1.393   8.505  0.00  0.00    +0.000 NA
ATOM     16  C   UNL     1      46.378   1.937   7.388  0.00  0.00    +0.000 A 
ATOM     17  C   UNL     1      46.287   3.292   7.102  0.00  0.00    +0.000 A 
ATOM     18  N   UNL     1      45.668   4.175   7.922  0.00  0.00    +0.000 NA
ENDBRANCH  10  13
ENDBRANCH   8   9
ENDBRANCH   5   8
ENDBRANCH   1   2
BRANCH   1  21
ATOM     19  C   UNL     1      51.083   8.304  15.618  0.00  0.00    +0.000 C 
ATOM     20  O   UNL     1      51.418   9.454  15.885  0.00  0.00    +0.000 OA
ATOM     21  N   UNL     1      50.096   8.018  14.709  0.00  0.00    +0.000 N 
ATOM     22  H   UNL     1      49.715   7.077  14.688  0.00  0.00    +0.000 HD
BRANCH  19  29
ATOM     23  N   UNL     1      49.682   4.513  17.998  0.00  0.00    +0.000 N 
ATOM     24  C   UNL     1      50.765   3.721  18.329  0.00  0.00    +0.000 A 
ATOM     25  N   UNL     1      51.999   3.972  18.038  0.00  0.00    +0.000 NA
ATOM     26  C   UNL     1      52.189   5.129  17.354  0.00  0.00    +0.000 A 
ATOM     27  S   UNL     1      53.754   5.658  16.945  0.00  0.00    +0.000 S 
ATOM     28  C   UNL     1      53.145   7.072  16.209  0.00  0.00    +0.000 A 
ATOM     29  C   UNL     1      51.759   7.151  16.225  0.00  0.00    +0.000 A 
ATOM     30  C   UNL     1      51.214   6.004  16.917  0.00  0.00    +0.000 A 
ATOM     31  C   UNL     1      49.837   5.665  17.233  0.00  0.00    +0.000 A 
ATOM     32  O   UNL     1      48.888   6.335  16.833  0.00  0.00    +0.000 OA
BRANCH  23  33
ATOM     33  C   UNL     1      48.337   4.099  18.370  0.00  0.00    +0.000 C 
BRANCH  33  35
ATOM     34  C   UNL     1      47.732   3.206  16.098  0.00  0.00    +0.000 C 
ATOM     35  C   UNL     1      47.881   2.876  17.574  0.00  0.00    +0.000 C 
ENDBRANCH  33  35
ENDBRANCH  23  33
ENDBRANCH  19  29
ENDBRANCH   1  21
TORSDOF 8
ENDMDL
MODEL 8
REMARK VINA RESULT:    -6.520      3.964      6.784
REMARK INTER + INTRA:         -10.715
REMARK INTER:                  -9.384
REMARK INTRA:                  -1.332
REMARK UNBOUND:                -1.146
REMARK  Name = 
REMARK  9 active torsions:
REMARK  status: ('A' for Active; 'I' for Inactive)
REMARK    1  A    between atoms: C_1  and  C_2
REMARK    2  A    between atoms: C_2  and  C_3
REMARK    3  A    between atoms: C_3  and  N_4
REMARK    4  A    between atoms: C_10  and  C_11
REMARK    5  A    between atoms: N_13  and  C_14
REMARK    6  A    between atoms: C_14  and  C_15
REMARK    7  A    between atoms: C_18  and  C_19
REMARK    8  A    between atoms: C_19  and  N_20
REMARK    9  A    between atoms: C_21  and  C_23
REMARK                            x       y       z     vdW  Elec       q    Type
REMARK                         _______ _______ _______ _____ _____    ______ ____
ROOT
ATOM      1  C   UNL     1      46.462   4.802  13.455  0.00  0.00    +0.000 C 
ENDROOT
BRANCH   1   2
ATOM      2  C   UNL     1      45.951   6.089  12.858  0.00  0.00    +0.000 A 
ATOM      3  C   UNL     1      46.546   7.318  13.170  0.00  0.00    +0.000 A 
ATOM      4  C   UNL     1      46.066   8.506  12.608  0.00  0.00    +0.000 A 
ATOM      5  C   UNL     1      44.965   8.491  11.740  0.00  0.00    +0.000 A 
ATOM      6  C   UNL     1      44.360   7.262  11.441  0.00  0.00    +0.000 A 
ATOM      7  C   UNL     1      44.843   6.075  12.001  0.00  0.00    +0.000 A 
BRANCH   5   8
ATOM      8  C   UNL     1      44.450   9.765  11.125  0.00  0.00    +0.000 C 
BRANCH   8   9
ATOM      9  N   UNL     1      43.027   9.912  11.299  0.00  0.00    +0.000 N 
ATOM     10  C   UNL     1      42.468  11.123  11.652  0.00  0.00    +0.000 C 
ATOM     11  O   UNL     1      43.114  12.158  11.777  0.00  0.00    +0.000 OA
ATOM     12  H   UNL     1      42.410   9.107  11.232  0.00  0.00    +0.000 HD
BRANCH  10  13
ATOM     13  C   UNL     1      41.000  11.097  11.904  0.00  0.00    +0.000 A 
ATOM     14  C   UNL     1      40.180  10.291  11.126  0.00  0.00    +0.000 A 
ATOM     15  N   UNL     1      38.830  10.270  11.277  0.00  0.00    +0.000 NA
ATOM     16  C   UNL     1      38.343  11.091  12.237  0.00  0.00    +0.000 A 
ATOM     17  C   UNL     1      39.165  11.886  13.023  0.00  0.00    +0.000 A 
ATOM     18  N   UNL     1      40.512  11.913  12.884  0.00  0.00    +0.000 NA
ENDBRANCH  10  13
ENDBRANCH   8   9
ENDBRANCH   5   8
ENDBRANCH   1   2
BRANCH   1  21
ATOM     19  C   UNL     1      47.612   4.036  15.491  0.00  0.00    +0.000 C 
ATOM     20  O   UNL     1      47.683   2.877  15.092  0.00  0.00    +0.000 OA
ATOM     21  N   UNL     1      46.956   5.017  14.790  0.00  0.00    +0.000 N 
ATOM     22  H   UNL     1      47.113   5.984  15.051  0.00  0.00    +0.000 HD
BRANCH  19  29
ATOM     23  N   UNL     1      50.675   7.305  16.881  0.00  0.00    +0.000 N 
ATOM     24  C   UNL     1      50.853   7.252  18.250  0.00  0.00    +0.000 A 
ATOM     25  N   UNL     1      50.271   6.423  19.054  0.00  0.00    +0.000 NA
ATOM     26  C   UNL     1      49.430   5.550  18.445  0.00  0.00    +0.000 A 
ATOM     27  S   UNL     1      48.628   4.341  19.334  0.00  0.00    +0.000 S 
ATOM     28  C   UNL     1      47.880   3.724  17.931  0.00  0.00    +0.000 A 
ATOM     29  C   UNL     1      48.189   4.437  16.780  0.00  0.00    +0.000 A 
ATOM     30  C   UNL     1      49.116   5.500  17.100  0.00  0.00    +0.000 A 
ATOM     31  C   UNL     1      49.764   6.473  16.238  0.00  0.00    +0.000 A 
ATOM     32  O   UNL     1      49.504   6.564  15.041  0.00  0.00    +0.000 OA
BRANCH  23  33
ATOM     33  C   UNL     1      51.380   8.307  16.093  0.00  0.00    +0.000 C 
BRANCH  33  35
ATOM     34  C   UNL     1      49.939  10.082  15.047  0.00  0.00    +0.000 C 
ATOM     35  C   UNL     1      50.764   9.695  16.263  0.00  0.00    +0.000 C 
ENDBRANCH  33  35
ENDBRANCH  23  33
ENDBRANCH  19  29
ENDBRANCH   1  21
TORSDOF 8
ENDMDL
MODEL 9
REMARK VINA RESULT:    -6.494      2.113      2.858
REMARK INTER + INTRA:         -10.678
REMARK INTER:                  -9.174
REMARK INTRA:                  -1.504
REMARK UNBOUND:                -1.146
REMARK  Name = 
REMARK  9 active torsions:
REMARK  status: ('A' for Active; 'I' for Inactive)
REMARK    1  A    between atoms: C_1  and  C_2
REMARK    2  A    between atoms: C_2  and  C_3
REMARK    3  A    between atoms: C_3  and  N_4
REMARK    4  A    between atoms: C_10  and  C_11
REMARK    5  A    between atoms: N_13  and  C_14
REMARK    6  A    between atoms: C_14  and  C_15
REMARK    7  A    between atoms: C_18  and  C_19
REMARK    8  A    between atoms: C_19  and  N_20
REMARK    9  A    between atoms: C_21  and  C_23
REMARK                            x       y       z     vdW  Elec       q    Type
REMARK                         _______ _______ _______ _____ _____    ______ ____
ROOT
ATOM      1  C   UNL     1      50.787   8.433  13.877  0.00  0.00    +0.000 C 
ENDROOT
BRANCH   1   2
ATOM      2  C   UNL     1      49.375   8.329  13.360  0.00  0.00    +0.000 A 
ATOM      3  C   UNL     1      48.311   8.948  14.029  0.00  0.00    +0.000 A 
ATOM      4  C   UNL     1      47.004   8.847  13.537  0.00  0.00    +0.000 A 
ATOM      5  C   UNL     1      46.733   8.104  12.380  0.00  0.00    +0.000 A 
ATOM      6  C   UNL     1      47.796   7.471  11.721  0.00  0.00    +0.000 A 
ATOM      7  C   UNL     1      49.101   7.576  12.210  0.00  0.00    +0.000 A 
BRANCH   5   8
ATOM      8  C   UNL     1      45.330   8.000  11.842  0.00  0.00    +0.000 C 
BRANCH   8   9
ATOM      9  N   UNL     1      45.176   6.877  10.952  0.00  0.00    +0.000 N 
ATOM     10  C   UNL     1      44.618   5.691  11.381  0.00  0.00    +0.000 C 
ATOM     11  O   UNL     1      44.159   5.524  12.506  0.00  0.00    +0.000 OA
ATOM     12  H   UNL     1      45.539   6.914  10.003  0.00  0.00    +0.000 HD
BRANCH  10  13
ATOM     13  C   UNL     1      44.624   4.586  10.382  0.00  0.00    +0.000 A 
ATOM     14  C   UNL     1      43.972   3.394  10.666  0.00  0.00    +0.000 A 
ATOM     15  N   UNL     1      43.991   2.336   9.814  0.00  0.00    +0.000 NA
ATOM     16  C   UNL     1      44.692   2.526   8.672  0.00  0.00    +0.000 A 
ATOM     17  C   UNL     1      45.332   3.723   8.383  0.00  0.00    +0.000 A 
ATOM     18  N   UNL     1      45.317   4.786   9.223  0.00  0.00    +0.000 NA
ENDBRANCH  10  13
ENDBRANCH   8   9
ENDBRANCH   5   8
ENDBRANCH   1   2
BRANCH   1  21
ATOM     19  C   UNL     1      50.852   8.629  16.329  0.00  0.00    +0.000 C 
ATOM     20  O   UNL     1      50.876   9.856  16.295  0.00  0.00    +0.000 OA
ATOM     21  N   UNL     1      50.895   7.860  15.193  0.00  0.00    +0.000 N 
ATOM     22  H   UNL     1      50.656   6.877  15.266  0.00  0.00    +0.000 HD
BRANCH  19  29
ATOM     23  N   UNL     1      48.262   5.146  18.107  0.00  0.00    +0.000 N 
ATOM     24  C   UNL     1      48.687   4.828  19.382  0.00  0.00    +0.000 A 
ATOM     25  N   UNL     1      49.657   5.399  20.018  0.00  0.00    +0.000 NA
ATOM     26  C   UNL     1      50.270   6.394  19.327  0.00  0.00    +0.000 A 
ATOM     27  S   UNL     1      51.524   7.305  20.029  0.00  0.00    +0.000 S 
ATOM     28  C   UNL     1      51.683   8.270  18.632  0.00  0.00    +0.000 A 
ATOM     29  C   UNL     1      50.826   7.901  17.604  0.00  0.00    +0.000 A 
ATOM     30  C   UNL     1      49.991   6.802  18.037  0.00  0.00    +0.000 A 
ATOM     31  C   UNL     1      48.918   6.109  17.346  0.00  0.00    +0.000 A 
ATOM     32  O   UNL     1      48.633   6.343  16.174  0.00  0.00    +0.000 OA
BRANCH  23  33
ATOM     33  C   UNL     1      47.166   4.405  17.498  0.00  0.00    +0.000 C 
BRANCH  33  35
ATOM     34  C   UNL     1      48.444   2.447  16.574  0.00  0.00    +0.000 C 
ATOM     35  C   UNL     1      47.392   2.895  17.576  0.00  0.00    +0.000 C 
ENDBRANCH  33  35
ENDBRANCH  23  33
ENDBRANCH  19  29
ENDBRANCH   1  21
TORSDOF 8
ENDMDL
