MODEL 1
REMARK VINA RESULT:    -8.419      0.000      0.000
REMARK INTER + INTRA:         -12.801
REMARK INTER:                 -11.865
REMARK INTRA:                  -0.936
REMARK UNBOUND:                -0.936
REMARK  Name = 
REMARK  8 active torsions:
REMARK  status: ('A' for Active; 'I' for Inactive)
REMARK    1  A    between atoms: C_1  and  C_2
REMARK    2  A    between atoms: C_6  and  C_7
REMARK    3  A    between atoms: C_7  and  O_8
REMARK    4  A    between atoms: O_8  and  C_9
REMARK    5  A    between atoms: C_9  and  C_10
REMARK    6  A    between atoms: C_13  and  C_14
REMARK    7  A    between atoms: C_14  and  N_15
REMARK    8  A    between atoms: C_16  and  C_18
REMARK                            x       y       z     vdW  Elec       q    Type
REMARK                         _______ _______ _______ _____ _____    ______ ____
ROOT
ATOM      1  C   UNL     1      44.486   5.384  12.038  0.00  0.00    +0.000 A 
ATOM      2  C   UNL     1      44.998   4.617  13.089  0.00  0.00    +0.000 A 
ATOM      3  C   UNL     1      46.218   4.942  13.687  0.00  0.00    +0.000 A 
ATOM      4  C   UNL     1      46.957   6.055  13.261  0.00  0.00    +0.000 A 
ATOM      5  C   UNL     1      46.455   6.802  12.184  0.00  0.00    +0.000 A 
ATOM      6  C   UNL     1      45.219   6.493  11.603  0.00  0.00    +0.000 A 
ENDROOT
BRANCH   1   7
ATOM      7  C   UNL     1      43.209   4.981  11.353  0.00  0.00    +0.000 C 
BRANCH   7   8
ATOM      8  O   UNL     1      43.529   4.515  10.050  0.00  0.00    +0.000 OA
BRANCH   8   9
ATOM      9  C   UNL     1      44.011   3.172  10.062  0.00  0.00    +0.000 C 
BRANCH   9  15
ATOM     10  C   UNL     1      46.869   0.101   7.613  0.00  0.00    +0.000 C 
ATOM     11  C   UNL     1      46.426   1.515   7.824  0.00  0.00    +0.000 A 
ATOM     12  C   UNL     1      46.976   2.550   7.077  0.00  0.00    +0.000 A 
ATOM     13  C   UNL     1      46.550   3.850   7.319  0.00  0.00    +0.000 A 
ATOM     14  C   UNL     1      45.589   4.076   8.295  0.00  0.00    +0.000 A 
ATOM     15  C   UNL     1      45.064   2.989   8.995  0.00  0.00    +0.000 A 
ATOM     16  N   UNL     1      45.485   1.718   8.775  0.00  0.00    +0.000 NA
ENDBRANCH   9  15
ENDBRANCH   8   9
ENDBRANCH   7   8
ENDBRANCH   1   7
BRANCH   4  17
ATOM     17  C   UNL     1      48.231   6.487  13.957  0.00  0.00    +0.000 C 
BRANCH  17  18
ATOM     18  N   UNL     1      48.086   6.666  15.382  0.00  0.00    +0.000 N 
ATOM     19  C   UNL     1      49.135   6.519  16.261  0.00  0.00    +0.000 C 
ATOM     20  O   UNL     1      50.262   6.225  15.916  0.00  0.00    +0.000 OA
ATOM     21  H   UNL     1      47.152   6.667  15.761  0.00  0.00    +0.000 HD
BRANCH  19  22
ATOM     22  C   UNL     1      48.796   6.802  17.666  0.00  0.00    +0.000 A 
ATOM     23  C   UNL     1      48.536   8.101  18.078  0.00  0.00    +0.000 A 
ATOM     24  S   UNL     1      48.193   8.226  19.747  0.00  0.00    +0.000 S 
ATOM     25  C   UNL     1      48.388   6.550  19.972  0.00  0.00    +0.000 A 
ATOM     26  N   UNL     1      48.259   5.980  21.202  0.00  0.00    +0.000 NA
ATOM     27  C   UNL     1      48.424   4.699  21.217  0.00  0.00    +0.000 A 
ATOM     28  N   UNL     1      48.699   3.933  20.114  0.00  0.00    +0.000 N 
ATOM     29  C   UNL     1      48.842   4.462  18.854  0.00  0.00    +0.000 A 
ATOM     30  O   UNL     1      49.062   3.747  17.886  0.00  0.00    +0.000 OA
ATOM     31  C   UNL     1      48.678   5.902  18.787  0.00  0.00    +0.000 A 
ATOM     32  H   UNL     1      48.794   2.931  20.186  0.00  0.00    +0.000 HD
ENDBRANCH  19  22
ENDBRANCH  17  18
ENDBRANCH   4  17
TORSDOF 7
ENDMDL
MODEL 2
REMARK VINA RESULT:    -7.883      0.988      1.371
REMARK INTER + INTRA:         -12.044
REMARK INTER:                 -11.216
REMARK INTRA:                  -0.828
REMARK UNBOUND:                -0.936
REMARK  Name = 
REMARK  8 active torsions:
REMARK  status: ('A' for Active; 'I' for Inactive)
REMARK    1  A    between atoms: C_1  and  C_2
REMARK    2  A    between atoms: C_6  and  C_7
REMARK    3  A    between atoms: C_7  and  O_8
REMARK    4  A    between atoms: O_8  and  C_9
REMARK    5  A    between atoms: C_9  and  C_10
REMARK    6  A    between atoms: C_13  and  C_14
REMARK    7  A    between atoms: C_14  and  N_15
REMARK    8  A    between atoms: C_16  and  C_18
REMARK                            x       y       z     vdW  Elec       q    Type
REMARK                         _______ _______ _______ _____ _____    ______ ____
ROOT
ATOM      1  C   UNL     1      44.517   4.953  11.703  0.00  0.00    +0.000 A 
ATOM      2  C   UNL     1      45.211   4.196  12.653  0.00  0.00    +0.000 A 
ATOM      3  C   UNL     1      46.397   4.668  13.219  0.00  0.00    +0.000 A 
ATOM      4  C   UNL     1      46.918   5.921  12.865  0.00  0.00    +0.000 A 
ATOM      5  C   UNL     1      46.236   6.662  11.887  0.00  0.00    +0.000 A 
ATOM      6  C   UNL     1      45.033   6.201  11.339  0.00  0.00    +0.000 A 
ENDROOT
BRANCH   1   7
ATOM      7  C   UNL     1      43.283   4.401  11.043  0.00  0.00    +0.000 C 
BRANCH   7   8
ATOM      8  O   UNL     1      43.684   3.455  10.063  0.00  0.00    +0.000 OA
BRANCH   8   9
ATOM      9  C   UNL     1      44.316   4.075   8.944  0.00  0.00    +0.000 C 
BRANCH   9  15
ATOM     10  C   UNL     1      47.247   3.145   5.183  0.00  0.00    +0.000 C 
ATOM     11  C   UNL     1      46.646   2.658   6.464  0.00  0.00    +0.000 A 
ATOM     12  C   UNL     1      46.940   1.388   6.948  0.00  0.00    +0.000 A 
ATOM     13  C   UNL     1      46.345   0.968   8.130  0.00  0.00    +0.000 A 
ATOM     14  C   UNL     1      45.478   1.826   8.794  0.00  0.00    +0.000 A 
ATOM     15  C   UNL     1      45.242   3.095   8.263  0.00  0.00    +0.000 A 
ATOM     16  N   UNL     1      45.808   3.508   7.100  0.00  0.00    +0.000 NA
ENDBRANCH   9  15
ENDBRANCH   8   9
ENDBRANCH   7   8
ENDBRANCH   1   7
BRANCH   4  17
ATOM     17  C   UNL     1      48.146   6.499  13.537  0.00  0.00    +0.000 C 
BRANCH  17  18
ATOM     18  N   UNL     1      48.078   6.495  14.979  0.00  0.00    +0.000 N 
ATOM     19  C   UNL     1      49.084   7.001  15.772  0.00  0.00    +0.000 C 
ATOM     20  O   UNL     1      50.106   7.485  15.330  0.00  0.00    +0.000 OA
ATOM     21  H   UNL     1      47.391   5.901  15.413  0.00  0.00    +0.000 HD
BRANCH  19  22
ATOM     22  C   UNL     1      48.798   6.958  17.217  0.00  0.00    +0.000 A 
ATOM     23  C   UNL     1      48.536   8.127  17.916  0.00  0.00    +0.000 A 
ATOM     24  S   UNL     1      48.260   7.872  19.582  0.00  0.00    +0.000 S 
ATOM     25  C   UNL     1      48.489   6.194  19.423  0.00  0.00    +0.000 A 
ATOM     26  N   UNL     1      48.419   5.362  20.500  0.00  0.00    +0.000 NA
ATOM     27  C   UNL     1      48.603   4.114  20.224  0.00  0.00    +0.000 A 
ATOM     28  N   UNL     1      48.844   3.618  18.969  0.00  0.00    +0.000 N 
ATOM     29  C   UNL     1      48.927   4.415  17.854  0.00  0.00    +0.000 A 
ATOM     30  O   UNL     1      49.118   3.938  16.743  0.00  0.00    +0.000 OA
ATOM     31  C   UNL     1      48.740   5.831  18.114  0.00  0.00    +0.000 A 
ATOM     32  H   UNL     1      48.957   2.627  18.814  0.00  0.00    +0.000 HD
ENDBRANCH  19  22
ENDBRANCH  17  18
ENDBRANCH   4  17
TORSDOF 7
ENDMDL
MODEL 3
REMARK VINA RESULT:    -7.604      2.222      2.780
REMARK INTER + INTRA:         -11.652
REMARK INTER:                 -10.419
REMARK INTRA:                  -1.233
REMARK UNBOUND:                -0.936
REMARK  Name = 
REMARK  8 active torsions:
REMARK  status: ('A' for Active; 'I' for Inactive)
REMARK    1  A    between atoms: C_1  and  C_2
REMARK    2  A    between atoms: C_6  and  C_7
REMARK    3  A    between atoms: C_7  and  O_8
REMARK    4  A    between atoms: O_8  and  C_9
REMARK    5  A    between atoms: C_9  and  C_10
REMARK    6  A    between atoms: C_13  and  C_14
REMARK    7  A    between atoms: C_14  and  N_15
REMARK    8  A    between atoms: C_16  and  C_18
REMARK                            x       y       z     vdW  Elec       q    Type
REMARK                         _______ _______ _______ _____ _____    ______ ____
ROOT
ATOM      1  C   UNL     1      45.483   5.291  12.326  0.00  0.00    +0.000 A 
ATOM      2  C   UNL     1      45.569   6.501  11.631  0.00  0.00    +0.000 A 
ATOM      3  C   UNL     1      46.680   7.334  11.775  0.00  0.00    +0.000 A 
ATOM      4  C   UNL     1      47.750   6.974  12.607  0.00  0.00    +0.000 A 
ATOM      5  C   UNL     1      47.645   5.775  13.328  0.00  0.00    +0.000 A 
ATOM      6  C   UNL     1      46.543   4.926  13.163  0.00  0.00    +0.000 A 
ENDROOT
BRANCH   1   7
ATOM      7  C   UNL     1      44.248   4.439  12.223  0.00  0.00    +0.000 C 
BRANCH   7   8
ATOM      8  O   UNL     1      44.628   3.159  11.739  0.00  0.00    +0.000 OA
BRANCH   8   9
ATOM      9  C   UNL     1      43.962   2.824  10.522  0.00  0.00    +0.000 C 
BRANCH   9  15
ATOM     10  C   UNL     1      46.926   0.402   7.531  0.00  0.00    +0.000 C 
ATOM     11  C   UNL     1      46.346   1.721   7.935  0.00  0.00    +0.000 A 
ATOM     12  C   UNL     1      46.708   2.889   7.275  0.00  0.00    +0.000 A 
ATOM     13  C   UNL     1      46.161   4.094   7.696  0.00  0.00    +0.000 A 
ATOM     14  C   UNL     1      45.268   4.096   8.760  0.00  0.00    +0.000 A 
ATOM     15  C   UNL     1      44.933   2.885   9.366  0.00  0.00    +0.000 A 
ATOM     16  N   UNL     1      45.474   1.705   8.971  0.00  0.00    +0.000 NA
ENDBRANCH   9  15
ENDBRANCH   8   9
ENDBRANCH   7   8
ENDBRANCH   1   7
BRANCH   4  17
ATOM     17  C   UNL     1      49.010   7.810  12.702  0.00  0.00    +0.000 C 
BRANCH  17  18
ATOM     18  N   UNL     1      49.983   7.295  13.634  0.00  0.00    +0.000 N 
ATOM     19  C   UNL     1      50.249   7.898  14.843  0.00  0.00    +0.000 C 
ATOM     20  O   UNL     1      49.693   8.910  15.223  0.00  0.00    +0.000 OA
ATOM     21  H   UNL     1      50.646   6.617  13.292  0.00  0.00    +0.000 HD
BRANCH  19  22
ATOM     22  C   UNL     1      51.232   7.185  15.677  0.00  0.00    +0.000 A 
ATOM     23  C   UNL     1      52.582   7.495  15.591  0.00  0.00    +0.000 A 
ATOM     24  S   UNL     1      53.562   6.539  16.613  0.00  0.00    +0.000 S 
ATOM     25  C   UNL     1      52.215   5.678  17.196  0.00  0.00    +0.000 A 
ATOM     26  N   UNL     1      52.355   4.668  18.100  0.00  0.00    +0.000 NA
ATOM     27  C   UNL     1      51.245   4.114  18.458  0.00  0.00    +0.000 A 
ATOM     28  N   UNL     1      50.005   4.479  18.001  0.00  0.00    +0.000 N 
ATOM     29  C   UNL     1      49.813   5.488  17.088  0.00  0.00    +0.000 A 
ATOM     30  O   UNL     1      48.691   5.807  16.720  0.00  0.00    +0.000 OA
ATOM     31  C   UNL     1      51.034   6.134  16.644  0.00  0.00    +0.000 A 
ATOM     32  H   UNL     1      49.171   4.022  18.337  0.00  0.00    +0.000 HD
ENDBRANCH  19  22
ENDBRANCH  17  18
ENDBRANCH   4  17
TORSDOF 7
ENDMDL
MODEL 4
REMARK VINA RESULT:    -7.386      2.894      8.939
REMARK INTER + INTRA:         -11.345
REMARK INTER:                  -9.837
REMARK INTRA:                  -1.508
REMARK UNBOUND:                -0.936
REMARK  Name = 
REMARK  8 active torsions:
REMARK  status: ('A' for Active; 'I' for Inactive)
REMARK    1  A    between atoms: C_1  and  C_2
REMARK    2  A    between atoms: C_6  and  C_7
REMARK    3  A    between atoms: C_7  and  O_8
REMARK    4  A    between atoms: O_8  and  C_9
REMARK    5  A    between atoms: C_9  and  C_10
REMARK    6  A    between atoms: C_13  and  C_14
REMARK    7  A    between atoms: C_14  and  N_15
REMARK    8  A    between atoms: C_16  and  C_18
REMARK                            x       y       z     vdW  Elec       q    Type
REMARK                         _______ _______ _______ _____ _____    ______ ____
ROOT
ATOM      1  C   UNL     1      49.393   8.133  15.835  0.00  0.00    +0.000 A 
ATOM      2  C   UNL     1      48.230   8.818  15.467  0.00  0.00    +0.000 A 
ATOM      3  C   UNL     1      47.722   8.724  14.170  0.00  0.00    +0.000 A 
ATOM      4  C   UNL     1      48.353   7.928  13.203  0.00  0.00    +0.000 A 
ATOM      5  C   UNL     1      49.537   7.269  13.567  0.00  0.00    +0.000 A 
ATOM      6  C   UNL     1      50.032   7.341  14.875  0.00  0.00    +0.000 A 
ENDROOT
BRANCH   1   7
ATOM      7  C   UNL     1      49.973   8.301  17.212  0.00  0.00    +0.000 C 
BRANCH   7   8
ATOM      8  O   UNL     1      49.106   7.671  18.143  0.00  0.00    +0.000 OA
BRANCH   8   9
ATOM      9  C   UNL     1      49.702   6.519  18.739  0.00  0.00    +0.000 C 
BRANCH   9  15
ATOM     10  C   UNL     1      50.572   1.990  17.213  0.00  0.00    +0.000 C 
ATOM     11  C   UNL     1      49.578   3.096  17.377  0.00  0.00    +0.000 A 
ATOM     12  C   UNL     1      48.264   2.938  16.951  0.00  0.00    +0.000 A 
ATOM     13  C   UNL     1      47.378   3.998  17.103  0.00  0.00    +0.000 A 
ATOM     14  C   UNL     1      47.829   5.179  17.677  0.00  0.00    +0.000 A 
ATOM     15  C   UNL     1      49.156   5.264  18.101  0.00  0.00    +0.000 A 
ATOM     16  N   UNL     1      50.031   4.239  17.942  0.00  0.00    +0.000 NA
ENDBRANCH   9  15
ENDBRANCH   8   9
ENDBRANCH   7   8
ENDBRANCH   1   7
BRANCH   4  17
ATOM     17  C   UNL     1      47.767   7.729  11.820  0.00  0.00    +0.000 C 
BRANCH  17  18
ATOM     18  N   UNL     1      46.948   6.547  11.697  0.00  0.00    +0.000 N 
ATOM     19  C   UNL     1      45.577   6.577  11.812  0.00  0.00    +0.000 C 
ATOM     20  O   UNL     1      44.944   7.591  12.028  0.00  0.00    +0.000 OA
ATOM     21  H   UNL     1      47.406   5.652  11.763  0.00  0.00    +0.000 HD
BRANCH  19  22
ATOM     22  C   UNL     1      44.920   5.276  11.595  0.00  0.00    +0.000 A 
ATOM     23  C   UNL     1      44.165   4.693  12.604  0.00  0.00    +0.000 A 
ATOM     24  S   UNL     1      43.512   3.176  12.169  0.00  0.00    +0.000 S 
ATOM     25  C   UNL     1      44.222   3.247  10.624  0.00  0.00    +0.000 A 
ATOM     26  N   UNL     1      44.080   2.228   9.731  0.00  0.00    +0.000 NA
ATOM     27  C   UNL     1      44.665   2.428   8.596  0.00  0.00    +0.000 A 
ATOM     28  N   UNL     1      45.374   3.555   8.269  0.00  0.00    +0.000 N 
ATOM     29  C   UNL     1      45.547   4.606   9.136  0.00  0.00    +0.000 A 
ATOM     30  O   UNL     1      46.164   5.609   8.804  0.00  0.00    +0.000 OA
ATOM     31  C   UNL     1      44.919   4.424  10.432  0.00  0.00    +0.000 A 
ATOM     32  H   UNL     1      45.789   3.662   7.356  0.00  0.00    +0.000 HD
ENDBRANCH  19  22
ENDBRANCH  17  18
ENDBRANCH   4  17
TORSDOF 7
ENDMDL
MODEL 5
REMARK VINA RESULT:    -6.450      3.530      8.993
REMARK INTER + INTRA:         -10.025
REMARK INTER:                  -8.507
REMARK INTRA:                  -1.518
REMARK UNBOUND:                -0.936
REMARK  Name = 
REMARK  8 active torsions:
REMARK  status: ('A' for Active; 'I' for Inactive)
REMARK    1  A    between atoms: C_1  and  C_2
REMARK    2  A    between atoms: C_6  and  C_7
REMARK    3  A    between atoms: C_7  and  O_8
REMARK    4  A    between atoms: O_8  and  C_9
REMARK    5  A    between atoms: C_9  and  C_10
REMARK    6  A    between atoms: C_13  and  C_14
REMARK    7  A    between atoms: C_14  and  N_15
REMARK    8  A    between atoms: C_16  and  C_18
REMARK                            x       y       z     vdW  Elec       q    Type
REMARK                         _______ _______ _______ _____ _____    ______ ____
ROOT
ATOM      1  C   UNL     1      49.846   8.149  18.412  0.00  0.00    +0.000 A 
ATOM      2  C   UNL     1      50.493   7.606  17.298  0.00  0.00    +0.000 A 
ATOM      3  C   UNL     1      49.963   7.760  16.015  0.00  0.00    +0.000 A 
ATOM      4  C   UNL     1      48.776   8.476  15.805  0.00  0.00    +0.000 A 
ATOM      5  C   UNL     1      48.113   8.991  16.930  0.00  0.00    +0.000 A 
ATOM      6  C   UNL     1      48.658   8.861  18.213  0.00  0.00    +0.000 A 
ENDROOT
BRANCH   1   7
ATOM      7  C   UNL     1      50.385   7.913  19.796  0.00  0.00    +0.000 C 
BRANCH   7   8
ATOM      8  O   UNL     1      49.590   6.917  20.422  0.00  0.00    +0.000 OA
BRANCH   8   9
ATOM      9  C   UNL     1      50.332   5.729  20.696  0.00  0.00    +0.000 C 
BRANCH   9  15
ATOM     10  C   UNL     1      47.527   3.109  17.719  0.00  0.00    +0.000 C 
ATOM     11  C   UNL     1      48.910   3.540  18.093  0.00  0.00    +0.000 A 
ATOM     12  C   UNL     1      50.014   3.078  17.385  0.00  0.00    +0.000 A 
ATOM     13  C   UNL     1      51.282   3.487  17.779  0.00  0.00    +0.000 A 
ATOM     14  C   UNL     1      51.409   4.347  18.862  0.00  0.00    +0.000 A 
ATOM     15  C   UNL     1      50.258   4.788  19.516  0.00  0.00    +0.000 A 
ATOM     16  N   UNL     1      49.017   4.381  19.148  0.00  0.00    +0.000 NA
ENDBRANCH   9  15
ENDBRANCH   8   9
ENDBRANCH   7   8
ENDBRANCH   1   7
BRANCH   4  17
ATOM     17  C   UNL     1      48.235   8.743  14.415  0.00  0.00    +0.000 C 
BRANCH  17  18
ATOM     18  N   UNL     1      47.301   7.745  13.951  0.00  0.00    +0.000 N 
ATOM     19  C   UNL     1      47.690   6.645  13.221  0.00  0.00    +0.000 C 
ATOM     20  O   UNL     1      48.842   6.424  12.904  0.00  0.00    +0.000 OA
ATOM     21  H   UNL     1      46.322   7.980  13.961  0.00  0.00    +0.000 HD
BRANCH  19  22
ATOM     22  C   UNL     1      46.596   5.713  12.893  0.00  0.00    +0.000 A 
ATOM     23  C   UNL     1      46.725   4.357  13.158  0.00  0.00    +0.000 A 
ATOM     24  S   UNL     1      45.365   3.442  12.680  0.00  0.00    +0.000 S 
ATOM     25  C   UNL     1      44.564   4.827  12.098  0.00  0.00    +0.000 A 
ATOM     26  N   UNL     1      43.335   4.745  11.518  0.00  0.00    +0.000 NA
ATOM     27  C   UNL     1      42.848   5.879  11.136  0.00  0.00    +0.000 A 
ATOM     28  N   UNL     1      43.474   7.089  11.285  0.00  0.00    +0.000 N 
ATOM     29  C   UNL     1      44.714   7.223  11.860  0.00  0.00    +0.000 A 
ATOM     30  O   UNL     1      45.234   8.321  12.003  0.00  0.00    +0.000 OA
ATOM     31  C   UNL     1      45.310   5.973  12.296  0.00  0.00    +0.000 A 
ATOM     32  H   UNL     1      43.031   7.945  10.986  0.00  0.00    +0.000 HD
ENDBRANCH  19  22
ENDBRANCH  17  18
ENDBRANCH   4  17
TORSDOF 7
ENDMDL
MODEL 6
REMARK VINA RESULT:    -6.256      2.978      9.700
REMARK INTER + INTRA:          -9.752
REMARK INTER:                  -8.511
REMARK INTRA:                  -1.241
REMARK UNBOUND:                -0.936
REMARK  Name = 
REMARK  8 active torsions:
REMARK  status: ('A' for Active; 'I' for Inactive)
REMARK    1  A    between atoms: C_1  and  C_2
REMARK    2  A    between atoms: C_6  and  C_7
REMARK    3  A    between atoms: C_7  and  O_8
REMARK    4  A    between atoms: O_8  and  C_9
REMARK    5  A    between atoms: C_9  and  C_10
REMARK    6  A    between atoms: C_13  and  C_14
REMARK    7  A    between atoms: C_14  and  N_15
REMARK    8  A    between atoms: C_16  and  C_18
REMARK                            x       y       z     vdW  Elec       q    Type
REMARK                         _______ _______ _______ _____ _____    ______ ____
ROOT
ATOM      1  C   UNL     1      51.036   7.894  14.782  0.00  0.00    +0.000 A 
ATOM      2  C   UNL     1      49.826   7.219  14.970  0.00  0.00    +0.000 A 
ATOM      3  C   UNL     1      48.820   7.266  14.002  0.00  0.00    +0.000 A 
ATOM      4  C   UNL     1      49.001   7.978  12.807  0.00  0.00    +0.000 A 
ATOM      5  C   UNL     1      50.204   8.681  12.638  0.00  0.00    +0.000 A 
ATOM      6  C   UNL     1      51.223   8.611  13.596  0.00  0.00    +0.000 A 
ENDROOT
BRANCH   1   7
ATOM      7  C   UNL     1      52.081   7.899  15.864  0.00  0.00    +0.000 C 
BRANCH   7   8
ATOM      8  O   UNL     1      51.770   8.936  16.781  0.00  0.00    +0.000 OA
BRANCH   8   9
ATOM      9  C   UNL     1      51.474   8.433  18.084  0.00  0.00    +0.000 C 
BRANCH   9  15
ATOM     10  C   UNL     1      47.379   6.134  19.327  0.00  0.00    +0.000 C 
ATOM     11  C   UNL     1      48.035   7.425  18.951  0.00  0.00    +0.000 A 
ATOM     12  C   UNL     1      47.295   8.598  18.858  0.00  0.00    +0.000 A 
ATOM     13  C   UNL     1      47.940   9.770  18.486  0.00  0.00    +0.000 A 
ATOM     14  C   UNL     1      49.303   9.737  18.221  0.00  0.00    +0.000 A 
ATOM     15  C   UNL     1      49.990   8.530  18.351  0.00  0.00    +0.000 A 
ATOM     16  N   UNL     1      49.364   7.377  18.700  0.00  0.00    +0.000 NA
ENDBRANCH   9  15
ENDBRANCH   8   9
ENDBRANCH   7   8
ENDBRANCH   1   7
BRANCH   4  17
ATOM     17  C   UNL     1      47.968   7.963  11.699  0.00  0.00    +0.000 C 
BRANCH  17  18
ATOM     18  N   UNL     1      47.084   6.823  11.741  0.00  0.00    +0.000 N 
ATOM     19  C   UNL     1      45.717   6.936  11.617  0.00  0.00    +0.000 C 
ATOM     20  O   UNL     1      45.144   7.996  11.466  0.00  0.00    +0.000 OA
ATOM     21  H   UNL     1      47.453   5.958  12.103  0.00  0.00    +0.000 HD
BRANCH  19  22
ATOM     22  C   UNL     1      44.997   5.651  11.626  0.00  0.00    +0.000 A 
ATOM     23  C   UNL     1      44.272   5.260  12.743  0.00  0.00    +0.000 A 
ATOM     24  S   UNL     1      43.535   3.729  12.569  0.00  0.00    +0.000 S 
ATOM     25  C   UNL     1      44.167   3.537  11.001  0.00  0.00    +0.000 A 
ATOM     26  N   UNL     1      43.938   2.407  10.277  0.00  0.00    +0.000 NA
ATOM     27  C   UNL     1      44.471   2.409   9.100  0.00  0.00    +0.000 A 
ATOM     28  N   UNL     1      45.209   3.440   8.577  0.00  0.00    +0.000 N 
ATOM     29  C   UNL     1      45.470   4.597   9.269  0.00  0.00    +0.000 A 
ATOM     30  O   UNL     1      46.110   5.510   8.764  0.00  0.00    +0.000 OA
ATOM     31  C   UNL     1      44.901   4.638  10.604  0.00  0.00    +0.000 A 
ATOM     32  H   UNL     1      45.581   3.391   7.641  0.00  0.00    +0.000 HD
ENDBRANCH  19  22
ENDBRANCH  17  18
ENDBRANCH   4  17
TORSDOF 7
ENDMDL
MODEL 7
REMARK VINA RESULT:    -6.203      2.066      3.391
REMARK INTER + INTRA:          -9.677
REMARK INTER:                  -9.478
REMARK INTRA:                  -0.199
REMARK UNBOUND:                -0.936
REMARK  Name = 
REMARK  8 active torsions:
REMARK  status: ('A' for Active; 'I' for Inactive)
REMARK    1  A    between atoms: C_1  and  C_2
REMARK    2  A    between atoms: C_6  and  C_7
REMARK    3  A    between atoms: C_7  and  O_8
REMARK    4  A    between atoms: O_8  and  C_9
REMARK    5  A    between atoms: C_9  and  C_10
REMARK    6  A    between atoms: C_13  and  C_14
REMARK    7  A    between atoms: C_14  and  N_15
REMARK    8  A    between atoms: C_16  and  C_18
REMARK                            x       y       z     vdW  Elec       q    Type
REMARK                         _______ _______ _______ _____ _____    ______ ____
ROOT
ATOM      1  C   UNL     1      46.352   5.373  12.416  0.00  0.00    +0.000 A 
ATOM      2  C   UNL     1      46.179   4.092  12.950  0.00  0.00    +0.000 A 
ATOM      3  C   UNL     1      46.661   3.774  14.222  0.00  0.00    +0.000 A 
ATOM      4  C   UNL     1      47.318   4.733  15.006  0.00  0.00    +0.000 A 
ATOM      5  C   UNL     1      47.519   6.007  14.453  0.00  0.00    +0.000 A 
ATOM      6  C   UNL     1      47.011   6.335  13.190  0.00  0.00    +0.000 A 
ENDROOT
BRANCH   1   7
ATOM      7  C   UNL     1      45.896   5.683  11.017  0.00  0.00    +0.000 C 
BRANCH   7   8
ATOM      8  O   UNL     1      44.578   6.207  11.082  0.00  0.00    +0.000 OA
BRANCH   8   9
ATOM      9  C   UNL     1      43.620   5.330  10.490  0.00  0.00    +0.000 C 
BRANCH   9  15
ATOM     10  C   UNL     1      46.583   4.039   6.863  0.00  0.00    +0.000 C 
ATOM     11  C   UNL     1      45.746   3.601   8.024  0.00  0.00    +0.000 A 
ATOM     12  C   UNL     1      45.647   2.256   8.361  0.00  0.00    +0.000 A 
ATOM     13  C   UNL     1      44.843   1.891   9.433  0.00  0.00    +0.000 A 
ATOM     14  C   UNL     1      44.166   2.878  10.137  0.00  0.00    +0.000 A 
ATOM     15  C   UNL     1      44.324   4.212   9.758  0.00  0.00    +0.000 A 
ATOM     16  N   UNL     1      45.096   4.575   8.702  0.00  0.00    +0.000 NA
ENDBRANCH   9  15
ENDBRANCH   8   9
ENDBRANCH   7   8
ENDBRANCH   1   7
BRANCH   4  17
ATOM     17  C   UNL     1      47.761   4.443  16.425  0.00  0.00    +0.000 C 
BRANCH  17  18
ATOM     18  N   UNL     1      47.567   5.546  17.335  0.00  0.00    +0.000 N 
ATOM     19  C   UNL     1      48.612   6.278  17.850  0.00  0.00    +0.000 C 
ATOM     20  O   UNL     1      49.778   6.058  17.588  0.00  0.00    +0.000 OA
ATOM     21  H   UNL     1      46.668   5.630  17.783  0.00  0.00    +0.000 HD
BRANCH  19  22
ATOM     22  C   UNL     1      48.202   7.400  18.713  0.00  0.00    +0.000 A 
ATOM     23  C   UNL     1      47.950   7.193  20.062  0.00  0.00    +0.000 A 
ATOM     24  S   UNL     1      47.459   8.608  20.883  0.00  0.00    +0.000 S 
ATOM     25  C   UNL     1      47.562   9.539  19.463  0.00  0.00    +0.000 A 
ATOM     26  N   UNL     1      47.240  10.863  19.456  0.00  0.00    +0.000 NA
ATOM     27  C   UNL     1      47.377  11.440  18.309  0.00  0.00    +0.000 A 
ATOM     28  N   UNL     1      47.812  10.819  17.167  0.00  0.00    +0.000 N 
ATOM     29  C   UNL     1      48.144   9.487  17.122  0.00  0.00    +0.000 A 
ATOM     30  O   UNL     1      48.554   8.968  16.093  0.00  0.00    +0.000 OA
ATOM     31  C   UNL     1      47.995   8.789  18.386  0.00  0.00    +0.000 A 
ATOM     32  H   UNL     1      47.920  11.331  16.305  0.00  0.00    +0.000 HD
ENDBRANCH  19  22
ENDBRANCH  17  18
ENDBRANCH   4  17
TORSDOF 7
ENDMDL
MODEL 8
REMARK VINA RESULT:    -6.193      1.713      2.180
REMARK INTER + INTRA:          -9.663
REMARK INTER:                  -9.673
REMARK INTRA:                   0.010
REMARK UNBOUND:                -0.936
REMARK  Name = 
REMARK  8 active torsions:
REMARK  status: ('A' for Active; 'I' for Inactive)
REMARK    1  A    between atoms: C_1  and  C_2
REMARK    2  A    between atoms: C_6  and  C_7
REMARK    3  A    between atoms: C_7  and  O_8
REMARK    4  A    between atoms: O_8  and  C_9
REMARK    5  A    between atoms: C_9  and  C_10
REMARK    6  A    between atoms: C_13  and  C_14
REMARK    7  A    between atoms: C_14  and  N_15
REMARK    8  A    between atoms: C_16  and  C_18
REMARK                            x       y       z     vdW  Elec       q    Type
REMARK                         _______ _______ _______ _____ _____    ______ ____
ROOT
ATOM      1  C   UNL     1      44.835   5.964  12.791  0.00  0.00    +0.000 A 
ATOM      2  C   UNL     1      45.755   5.057  13.326  0.00  0.00    +0.000 A 
ATOM      3  C   UNL     1      47.022   5.477  13.736  0.00  0.00    +0.000 A 
ATOM      4  C   UNL     1      47.402   6.824  13.640  0.00  0.00    +0.000 A 
ATOM      5  C   UNL     1      46.488   7.724  13.072  0.00  0.00    +0.000 A 
ATOM      6  C   UNL     1      45.208   7.308  12.686  0.00  0.00    +0.000 A 
ENDROOT
BRANCH   1   7
ATOM      7  C   UNL     1      43.503   5.487  12.282  0.00  0.00    +0.000 C 
BRANCH   7   8
ATOM      8  O   UNL     1      43.516   5.553  10.864  0.00  0.00    +0.000 OA
BRANCH   8   9
ATOM      9  C   UNL     1      44.843   5.548  10.337  0.00  0.00    +0.000 C 
BRANCH   9  15
ATOM     10  C   UNL     1      46.801   3.506   6.388  0.00  0.00    +0.000 C 
ATOM     11  C   UNL     1      46.022   3.315   7.652  0.00  0.00    +0.000 A 
ATOM     12  C   UNL     1      45.565   2.055   8.021  0.00  0.00    +0.000 A 
ATOM     13  C   UNL     1      44.829   1.926   9.192  0.00  0.00    +0.000 A 
ATOM     14  C   UNL     1      44.575   3.055   9.959  0.00  0.00    +0.000 A 
ATOM     15  C   UNL     1      45.080   4.287   9.541  0.00  0.00    +0.000 A 
ATOM     16  N   UNL     1      45.787   4.424   8.390  0.00  0.00    +0.000 NA
ENDBRANCH   9  15
ENDBRANCH   8   9
ENDBRANCH   7   8
ENDBRANCH   1   7
BRANCH   4  17
ATOM     17  C   UNL     1      48.731   7.322  14.170  0.00  0.00    +0.000 C 
BRANCH  17  18
ATOM     18  N   UNL     1      49.185   6.628  15.351  0.00  0.00    +0.000 N 
ATOM     19  C   UNL     1      49.285   7.239  16.581  0.00  0.00    +0.000 C 
ATOM     20  O   UNL     1      49.004   8.405  16.775  0.00  0.00    +0.000 OA
ATOM     21  H   UNL     1      49.660   5.749  15.224  0.00  0.00    +0.000 HD
BRANCH  19  22
ATOM     22  C   UNL     1      49.712   6.345  17.672  0.00  0.00    +0.000 A 
ATOM     23  C   UNL     1      50.925   5.677  17.598  0.00  0.00    +0.000 A 
ATOM     24  S   UNL     1      51.225   4.667  18.943  0.00  0.00    +0.000 S 
ATOM     25  C   UNL     1      49.741   5.087  19.663  0.00  0.00    +0.000 A 
ATOM     26  N   UNL     1      49.348   4.543  20.848  0.00  0.00    +0.000 NA
ATOM     27  C   UNL     1      48.204   4.965  21.276  0.00  0.00    +0.000 A 
ATOM     28  N   UNL     1      47.419   5.885  20.631  0.00  0.00    +0.000 N 
ATOM     29  C   UNL     1      47.770   6.459  19.433  0.00  0.00    +0.000 A 
ATOM     30  O   UNL     1      47.058   7.297  18.897  0.00  0.00    +0.000 OA
ATOM     31  C   UNL     1      49.044   6.007  18.904  0.00  0.00    +0.000 A 
ATOM     32  H   UNL     1      46.544   6.192  21.029  0.00  0.00    +0.000 HD
ENDBRANCH  19  22
ENDBRANCH  17  18
ENDBRANCH   4  17
TORSDOF 7
ENDMDL
MODEL 9
REMARK VINA RESULT:    -6.131      4.246      6.088
REMARK INTER + INTRA:          -9.575
REMARK INTER:                  -8.376
REMARK INTRA:                  -1.200
REMARK UNBOUND:                -0.936
REMARK  Name = 
REMARK  8 active torsions:
REMARK  status: ('A' for Active; 'I' for Inactive)
REMARK    1  A    between atoms: C_1  and  C_2
REMARK    2  A    between atoms: C_6  and  C_7
REMARK    3  A    between atoms: C_7  and  O_8
REMARK    4  A    between atoms: O_8  and  C_9
REMARK    5  A    between atoms: C_9  and  C_10
REMARK    6  A    between atoms: C_13  and  C_14
REMARK    7  A    between atoms: C_14  and  N_15
REMARK    8  A    between atoms: C_16  and  C_18
REMARK                            x       y       z     vdW  Elec       q    Type
REMARK                         _______ _______ _______ _____ _____    ______ ____
ROOT
ATOM      1  C   UNL     1      47.381   9.551  11.884  0.00  0.00    +0.000 A 
ATOM      2  C   UNL     1      46.072   9.266  12.285  0.00  0.00    +0.000 A 
ATOM      3  C   UNL     1      45.712   7.982  12.701  0.00  0.00    +0.000 A 
ATOM      4  C   UNL     1      46.657   6.946  12.746  0.00  0.00    +0.000 A 
ATOM      5  C   UNL     1      47.961   7.229  12.311  0.00  0.00    +0.000 A 
ATOM      6  C   UNL     1      48.328   8.523  11.920  0.00  0.00    +0.000 A 
ENDROOT
BRANCH   1   7
ATOM      7  C   UNL     1      47.738  10.917  11.366  0.00  0.00    +0.000 C 
BRANCH   7   8
ATOM      8  O   UNL     1      46.700  11.817  11.724  0.00  0.00    +0.000 OA
BRANCH   8   9
ATOM      9  C   UNL     1      46.370  12.709  10.660  0.00  0.00    +0.000 C 
BRANCH   9  15
ATOM     10  C   UNL     1      45.091  11.829   6.057  0.00  0.00    +0.000 C 
ATOM     11  C   UNL     1      44.791  11.628   7.510  0.00  0.00    +0.000 A 
ATOM     12  C   UNL     1      43.684  10.889   7.911  0.00  0.00    +0.000 A 
ATOM     13  C   UNL     1      43.431  10.745   9.269  0.00  0.00    +0.000 A 
ATOM     14  C   UNL     1      44.291  11.337  10.184  0.00  0.00    +0.000 A 
ATOM     15  C   UNL     1      45.395  12.049   9.714  0.00  0.00    +0.000 A 
ATOM     16  N   UNL     1      45.640  12.208   8.388  0.00  0.00    +0.000 NA
ENDBRANCH   9  15
ENDBRANCH   8   9
ENDBRANCH   7   8
ENDBRANCH   1   7
BRANCH   4  17
ATOM     17  C   UNL     1      46.317   5.573  13.288  0.00  0.00    +0.000 C 
BRANCH  17  18
ATOM     18  N   UNL     1      46.837   5.323  14.611  0.00  0.00    +0.000 N 
ATOM     19  C   UNL     1      47.336   4.099  14.995  0.00  0.00    +0.000 C 
ATOM     20  O   UNL     1      47.380   3.132  14.260  0.00  0.00    +0.000 OA
ATOM     21  H   UNL     1      46.613   5.987  15.335  0.00  0.00    +0.000 HD
BRANCH  19  22
ATOM     22  C   UNL     1      47.873   4.064  16.367  0.00  0.00    +0.000 A 
ATOM     23  C   UNL     1      47.450   3.092  17.262  0.00  0.00    +0.000 A 
ATOM     24  S   UNL     1      48.164   3.239  18.807  0.00  0.00    +0.000 S 
ATOM     25  C   UNL     1      49.055   4.608  18.330  0.00  0.00    +0.000 A 
ATOM     26  N   UNL     1      49.870   5.264  19.203  0.00  0.00    +0.000 NA
ATOM     27  C   UNL     1      50.490   6.277  18.696  0.00  0.00    +0.000 A 
ATOM     28  N   UNL     1      50.375   6.693  17.394  0.00  0.00    +0.000 N 
ATOM     29  C   UNL     1      49.564   6.068  16.479  0.00  0.00    +0.000 A 
ATOM     30  O   UNL     1      49.505   6.449  15.318  0.00  0.00    +0.000 OA
ATOM     31  C   UNL     1      48.835   4.928  17.004  0.00  0.00    +0.000 A 
ATOM     32  H   UNL     1      50.904   7.481  17.051  0.00  0.00    +0.000 HD
ENDBRANCH  19  22
ENDBRANCH  17  18
ENDBRANCH   4  17
TORSDOF 7
ENDMDL
