MODEL 1
REMARK VINA RESULT:    -6.914      0.000      0.000
REMARK INTER + INTRA:         -11.102
REMARK INTER:                  -9.339
REMARK INTRA:                  -1.763
REMARK UNBOUND:                -1.763
REMARK  Name = 
REMARK  7 active torsions:
REMARK  status: ('A' for Active; 'I' for Inactive)
REMARK    1  A    between atoms: C_1  and  C_2
REMARK    2  A    between atoms: C_2  and  N_3
REMARK    3  A    between atoms: C_2  and  C_10
REMARK    4  A    between atoms: N_3  and  C_4
REMARK    5  A    between atoms: C_13  and  C_14
REMARK    6  A    between atoms: C_14  and  N_15
REMARK    7  A    between atoms: C_16  and  C_18
REMARK                            x       y       z     vdW  Elec       q    Type
REMARK                         _______ _______ _______ _____ _____    ______ ____
ROOT
ATOM      1  C   UNL     1      46.190   7.886  11.998  0.00  0.00    +0.000 A 
ATOM      2  C   UNL     1      46.586   8.952  12.826  0.00  0.00    +0.000 A 
ATOM      3  C   UNL     1      47.855   9.003  13.396  0.00  0.00    +0.000 A 
ATOM      4  C   UNL     1      48.787   8.002  13.119  0.00  0.00    +0.000 A 
ATOM      5  C   UNL     1      48.429   6.959  12.258  0.00  0.00    +0.000 A 
ATOM      6  C   UNL     1      47.144   6.897  11.713  0.00  0.00    +0.000 A 
ENDROOT
BRANCH   1   8
ATOM      7  C   UNL     1      44.112   9.017  11.020  0.00  0.00    +0.000 C 
ATOM      8  C   UNL     1      44.730   7.718  11.572  0.00  0.00    +0.000 C 
BRANCH   8   9
ATOM      9  N   UNL     1      44.421   6.495  10.796  0.00  0.00    +0.000 NA
ATOM     10  H   UNL     1      45.284   6.025  10.532  0.00  0.00    +0.000 HD
BRANCH   9  11
ATOM     11  C   UNL     1      43.435   5.543  11.337  0.00  0.00    +0.000 C 
ATOM     12  C   UNL     1      43.555   5.238  12.828  0.00  0.00    +0.000 C 
ATOM     13  C   UNL     1      44.833   4.475  13.146  0.00  0.00    +0.000 C 
ATOM     14  N   UNL     1      44.778   3.156  12.517  0.00  0.00    +0.000 NA
ATOM     15  C   UNL     1      44.668   3.280  11.061  0.00  0.00    +0.000 C 
ATOM     16  C   UNL     1      43.510   4.178  10.605  0.00  0.00    +0.000 C 
ATOM     17  H   UNL     1      43.955   2.664  12.873  0.00  0.00    +0.000 HD
ENDBRANCH   9  11
ENDBRANCH   8   9
ENDBRANCH   1   8
BRANCH   4  18
ATOM     18  C   UNL     1      50.099   7.973  13.846  0.00  0.00    +0.000 C 
BRANCH  18  19
ATOM     19  N   UNL     1      50.044   7.001  14.904  0.00  0.00    +0.000 N 
ATOM     20  C   UNL     1      49.725   7.354  16.182  0.00  0.00    +0.000 C 
ATOM     21  O   UNL     1      49.450   8.506  16.498  0.00  0.00    +0.000 OA
ATOM     22  H   UNL     1      50.481   6.103  14.723  0.00  0.00    +0.000 HD
BRANCH  20  23
ATOM     23  C   UNL     1      49.657   6.254  17.156  0.00  0.00    +0.000 A 
ATOM     24  C   UNL     1      50.464   6.283  18.285  0.00  0.00    +0.000 A 
ATOM     25  S   UNL     1      50.205   4.970  19.341  0.00  0.00    +0.000 S 
ATOM     26  C   UNL     1      49.049   4.288  18.298  0.00  0.00    +0.000 A 
ATOM     27  N   UNL     1      48.438   3.110  18.602  0.00  0.00    +0.000 NA
ATOM     28  C   UNL     1      47.608   2.699  17.706  0.00  0.00    +0.000 A 
ATOM     29  N   UNL     1      47.318   3.347  16.533  0.00  0.00    +0.000 N 
ATOM     30  C   UNL     1      47.889   4.550  16.194  0.00  0.00    +0.000 A 
ATOM     31  O   UNL     1      47.581   5.139  15.164  0.00  0.00    +0.000 OA
ATOM     32  C   UNL     1      48.847   5.061  17.164  0.00  0.00    +0.000 A 
ATOM     33  H   UNL     1      46.654   2.976  15.886  0.00  0.00    +0.000 HD
ENDBRANCH  20  23
ENDBRANCH  18  19
ENDBRANCH   4  18
TORSDOF 6
ENDMDL
MODEL 2
REMARK VINA RESULT:    -6.879      2.505      3.568
REMARK INTER + INTRA:         -11.054
REMARK INTER:                 -10.217
REMARK INTRA:                  -0.837
REMARK UNBOUND:                -1.763
REMARK  Name = 
REMARK  7 active torsions:
REMARK  status: ('A' for Active; 'I' for Inactive)
REMARK    1  A    between atoms: C_1  and  C_2
REMARK    2  A    between atoms: C_2  and  N_3
REMARK    3  A    between atoms: C_2  and  C_10
REMARK    4  A    between atoms: N_3  and  C_4
REMARK    5  A    between atoms: C_13  and  C_14
REMARK    6  A    between atoms: C_14  and  N_15
REMARK    7  A    between atoms: C_16  and  C_18
REMARK                            x       y       z     vdW  Elec       q    Type
REMARK                         _______ _______ _______ _____ _____    ______ ____
ROOT
ATOM      1  C   UNL     1      45.457   4.617  12.325  0.00  0.00    +0.000 A 
ATOM      2  C   UNL     1      46.009   4.324  13.586  0.00  0.00    +0.000 A 
ATOM      3  C   UNL     1      46.987   5.130  14.162  0.00  0.00    +0.000 A 
ATOM      4  C   UNL     1      47.416   6.285  13.507  0.00  0.00    +0.000 A 
ATOM      5  C   UNL     1      46.843   6.621  12.276  0.00  0.00    +0.000 A 
ATOM      6  C   UNL     1      45.884   5.792  11.688  0.00  0.00    +0.000 A 
ENDROOT
BRANCH   1   8
ATOM      7  C   UNL     1      43.213   4.205  11.166  0.00  0.00    +0.000 C 
ATOM      8  C   UNL     1      44.564   3.608  11.601  0.00  0.00    +0.000 C 
BRANCH   8   9
ATOM      9  N   UNL     1      45.235   2.764  10.587  0.00  0.00    +0.000 NA
ATOM     10  H   UNL     1      45.476   1.862  10.991  0.00  0.00    +0.000 HD
BRANCH   9  11
ATOM     11  C   UNL     1      44.605   2.608   9.264  0.00  0.00    +0.000 C 
ATOM     12  C   UNL     1      45.026   1.376   8.469  0.00  0.00    +0.000 C 
ATOM     13  C   UNL     1      46.483   1.453   8.038  0.00  0.00    +0.000 C 
ATOM     14  N   UNL     1      46.651   2.558   7.095  0.00  0.00    +0.000 NA
ATOM     15  C   UNL     1      46.288   3.833   7.720  0.00  0.00    +0.000 C 
ATOM     16  C   UNL     1      44.892   3.832   8.356  0.00  0.00    +0.000 C 
ATOM     17  H   UNL     1      46.036   2.393   6.294  0.00  0.00    +0.000 HD
ENDBRANCH   9  11
ENDBRANCH   8   9
ENDBRANCH   1   8
BRANCH   4  18
ATOM     18  C   UNL     1      48.572   7.072  14.050  0.00  0.00    +0.000 C 
BRANCH  18  19
ATOM     19  N   UNL     1      48.453   7.183  15.478  0.00  0.00    +0.000 N 
ATOM     20  C   UNL     1      49.414   6.698  16.314  0.00  0.00    +0.000 C 
ATOM     21  O   UNL     1      50.438   6.162  15.902  0.00  0.00    +0.000 OA
ATOM     22  H   UNL     1      47.533   7.408  15.844  0.00  0.00    +0.000 HD
BRANCH  20  23
ATOM     23  C   UNL     1      49.191   6.921  17.751  0.00  0.00    +0.000 A 
ATOM     24  C   UNL     1      49.189   8.215  18.255  0.00  0.00    +0.000 A 
ATOM     25  S   UNL     1      48.844   8.295  19.922  0.00  0.00    +0.000 S 
ATOM     26  C   UNL     1      48.745   6.602  20.040  0.00  0.00    +0.000 A 
ATOM     27  N   UNL     1      48.494   5.995  21.232  0.00  0.00    +0.000 NA
ATOM     28  C   UNL     1      48.477   4.707  21.176  0.00  0.00    +0.000 A 
ATOM     29  N   UNL     1      48.681   3.958  20.046  0.00  0.00    +0.000 N 
ATOM     30  C   UNL     1      48.911   4.524  18.816  0.00  0.00    +0.000 A 
ATOM     31  O   UNL     1      49.041   3.839  17.808  0.00  0.00    +0.000 OA
ATOM     32  C   UNL     1      48.953   5.980  18.817  0.00  0.00    +0.000 A 
ATOM     33  H   UNL     1      48.642   2.960  20.071  0.00  0.00    +0.000 HD
ENDBRANCH  20  23
ENDBRANCH  18  19
ENDBRANCH   4  18
TORSDOF 6
ENDMDL
MODEL 3
REMARK VINA RESULT:    -6.800      2.948      3.875
REMARK INTER + INTRA:         -10.947
REMARK INTER:                  -9.707
REMARK INTRA:                  -1.241
REMARK UNBOUND:                -1.763
REMARK  Name = 
REMARK  7 active torsions:
REMARK  status: ('A' for Active; 'I' for Inactive)
REMARK    1  A    between atoms: C_1  and  C_2
REMARK    2  A    between atoms: C_2  and  N_3
REMARK    3  A    between atoms: C_2  and  C_10
REMARK    4  A    between atoms: N_3  and  C_4
REMARK    5  A    between atoms: C_13  and  C_14
REMARK    6  A    between atoms: C_14  and  N_15
REMARK    7  A    between atoms: C_16  and  C_18
REMARK                            x       y       z     vdW  Elec       q    Type
REMARK                         _______ _______ _______ _____ _____    ______ ____
ROOT
ATOM      1  C   UNL     1      45.619   5.089  12.517  0.00  0.00    +0.000 A 
ATOM      2  C   UNL     1      45.186   6.346  12.055  0.00  0.00    +0.000 A 
ATOM      3  C   UNL     1      45.830   7.523  12.427  0.00  0.00    +0.000 A 
ATOM      4  C   UNL     1      46.959   7.475  13.244  0.00  0.00    +0.000 A 
ATOM      5  C   UNL     1      47.435   6.231  13.673  0.00  0.00    +0.000 A 
ATOM      6  C   UNL     1      46.768   5.055  13.322  0.00  0.00    +0.000 A 
ENDROOT
BRANCH   1   8
ATOM      7  C   UNL     1      43.259   4.105  12.393  0.00  0.00    +0.000 C 
ATOM      8  C   UNL     1      44.773   3.834  12.298  0.00  0.00    +0.000 C 
BRANCH   8   9
ATOM      9  N   UNL     1      45.188   2.965  11.173  0.00  0.00    +0.000 NA
ATOM     10  H   UNL     1      45.386   2.027  11.515  0.00  0.00    +0.000 HD
BRANCH   9  11
ATOM     11  C   UNL     1      44.353   2.929   9.959  0.00  0.00    +0.000 C 
ATOM     12  C   UNL     1      44.583   1.741   9.030  0.00  0.00    +0.000 C 
ATOM     13  C   UNL     1      45.958   1.791   8.380  0.00  0.00    +0.000 C 
ATOM     14  N   UNL     1      46.033   2.952   7.495  0.00  0.00    +0.000 NA
ATOM     15  C   UNL     1      45.837   4.193   8.250  0.00  0.00    +0.000 C 
ATOM     16  C   UNL     1      44.557   4.203   9.098  0.00  0.00    +0.000 C 
ATOM     17  H   UNL     1      45.294   2.870   6.793  0.00  0.00    +0.000 HD
ENDBRANCH   9  11
ENDBRANCH   8   9
ENDBRANCH   1   8
BRANCH   4  18
ATOM     18  C   UNL     1      47.564   8.744  13.768  0.00  0.00    +0.000 C 
BRANCH  18  19
ATOM     19  N   UNL     1      47.422   8.794  15.198  0.00  0.00    +0.000 N 
ATOM     20  C   UNL     1      48.311   9.469  15.980  0.00  0.00    +0.000 C 
ATOM     21  O   UNL     1      49.264  10.084  15.514  0.00  0.00    +0.000 OA
ATOM     22  H   UNL     1      46.791   8.119  15.618  0.00  0.00    +0.000 HD
BRANCH  20  23
ATOM     23  C   UNL     1      48.022   9.481  17.422  0.00  0.00    +0.000 A 
ATOM     24  C   UNL     1      47.731  10.681  18.056  0.00  0.00    +0.000 A 
ATOM     25  S   UNL     1      47.350  10.503  19.707  0.00  0.00    +0.000 S 
ATOM     26  C   UNL     1      47.617   8.826  19.646  0.00  0.00    +0.000 A 
ATOM     27  N   UNL     1      47.483   8.052  20.758  0.00  0.00    +0.000 NA
ATOM     28  C   UNL     1      47.745   6.804  20.569  0.00  0.00    +0.000 A 
ATOM     29  N   UNL     1      48.125   6.244  19.376  0.00  0.00    +0.000 N 
ATOM     30  C   UNL     1      48.248   6.977  18.221  0.00  0.00    +0.000 A 
ATOM     31  O   UNL     1      48.539   6.450  17.154  0.00  0.00    +0.000 OA
ATOM     32  C   UNL     1      47.974   8.399  18.375  0.00  0.00    +0.000 A 
ATOM     33  H   UNL     1      48.302   5.264  19.297  0.00  0.00    +0.000 HD
ENDBRANCH  20  23
ENDBRANCH  18  19
ENDBRANCH   4  18
TORSDOF 6
ENDMDL
MODEL 4
REMARK VINA RESULT:    -6.751      3.041      7.220
REMARK INTER + INTRA:         -10.882
REMARK INTER:                  -9.489
REMARK INTRA:                  -1.393
REMARK UNBOUND:                -1.763
REMARK  Name = 
REMARK  7 active torsions:
REMARK  status: ('A' for Active; 'I' for Inactive)
REMARK    1  A    between atoms: C_1  and  C_2
REMARK    2  A    between atoms: C_2  and  N_3
REMARK    3  A    between atoms: C_2  and  C_10
REMARK    4  A    between atoms: N_3  and  C_4
REMARK    5  A    between atoms: C_13  and  C_14
REMARK    6  A    between atoms: C_14  and  N_15
REMARK    7  A    between atoms: C_16  and  C_18
REMARK                            x       y       z     vdW  Elec       q    Type
REMARK                         _______ _______ _______ _____ _____    ______ ____
ROOT
ATOM      1  C   UNL     1      48.881   8.136  16.029  0.00  0.00    +0.000 A 
ATOM      2  C   UNL     1      49.094   6.955  15.293  0.00  0.00    +0.000 A 
ATOM      3  C   UNL     1      48.769   6.867  13.942  0.00  0.00    +0.000 A 
ATOM      4  C   UNL     1      48.257   7.977  13.272  0.00  0.00    +0.000 A 
ATOM      5  C   UNL     1      48.085   9.176  13.973  0.00  0.00    +0.000 A 
ATOM      6  C   UNL     1      48.384   9.251  15.336  0.00  0.00    +0.000 A 
ENDROOT
BRANCH   1   8
ATOM      7  C   UNL     1      48.089   9.179  18.228  0.00  0.00    +0.000 C 
ATOM      8  C   UNL     1      49.018   8.152  17.553  0.00  0.00    +0.000 C 
BRANCH   8   9
ATOM      9  N   UNL     1      49.074   6.826  18.209  0.00  0.00    +0.000 NA
ATOM     10  H   UNL     1      49.769   6.836  18.952  0.00  0.00    +0.000 HD
BRANCH   9  11
ATOM     11  C   UNL     1      47.816   6.203  18.657  0.00  0.00    +0.000 C 
ATOM     12  C   UNL     1      47.712   5.920  20.153  0.00  0.00    +0.000 C 
ATOM     13  C   UNL     1      48.691   4.841  20.593  0.00  0.00    +0.000 C 
ATOM     14  N   UNL     1      48.325   3.572  19.966  0.00  0.00    +0.000 NA
ATOM     15  C   UNL     1      48.384   3.678  18.506  0.00  0.00    +0.000 C 
ATOM     16  C   UNL     1      47.571   4.850  17.940  0.00  0.00    +0.000 C 
ATOM     17  H   UNL     1      47.368   3.339  20.244  0.00  0.00    +0.000 HD
ENDBRANCH   9  11
ENDBRANCH   8   9
ENDBRANCH   1   8
BRANCH   4  18
ATOM     18  C   UNL     1      47.767   7.844  11.860  0.00  0.00    +0.000 C 
BRANCH  18  19
ATOM     19  N   UNL     1      47.039   6.613  11.715  0.00  0.00    +0.000 N 
ATOM     20  C   UNL     1      45.699   6.544  11.957  0.00  0.00    +0.000 C 
ATOM     21  O   UNL     1      45.037   7.522  12.288  0.00  0.00    +0.000 OA
ATOM     22  H   UNL     1      47.587   5.760  11.668  0.00  0.00    +0.000 HD
BRANCH  20  23
ATOM     23  C   UNL     1      45.068   5.235  11.724  0.00  0.00    +0.000 A 
ATOM     24  C   UNL     1      44.392   4.603  12.758  0.00  0.00    +0.000 A 
ATOM     25  S   UNL     1      43.662   3.134  12.295  0.00  0.00    +0.000 S 
ATOM     26  C   UNL     1      44.275   3.263  10.715  0.00  0.00    +0.000 A 
ATOM     27  N   UNL     1      44.034   2.296   9.787  0.00  0.00    +0.000 NA
ATOM     28  C   UNL     1      44.585   2.513   8.642  0.00  0.00    +0.000 A 
ATOM     29  N   UNL     1      45.352   3.603   8.323  0.00  0.00    +0.000 N 
ATOM     30  C   UNL     1      45.601   4.618   9.215  0.00  0.00    +0.000 A 
ATOM     31  O   UNL     1      46.247   5.609   8.896  0.00  0.00    +0.000 OA
ATOM     32  C   UNL     1      45.012   4.424  10.533  0.00  0.00    +0.000 A 
ATOM     33  H   UNL     1      45.740   3.715   7.410  0.00  0.00    +0.000 HD
ENDBRANCH  20  23
ENDBRANCH  18  19
ENDBRANCH   4  18
TORSDOF 6
ENDMDL
MODEL 5
REMARK VINA RESULT:    -6.452      2.925      4.010
REMARK INTER + INTRA:         -10.478
REMARK INTER:                  -9.586
REMARK INTRA:                  -0.892
REMARK UNBOUND:                -1.763
REMARK  Name = 
REMARK  7 active torsions:
REMARK  status: ('A' for Active; 'I' for Inactive)
REMARK    1  A    between atoms: C_1  and  C_2
REMARK    2  A    between atoms: C_2  and  N_3
REMARK    3  A    between atoms: C_2  and  C_10
REMARK    4  A    between atoms: N_3  and  C_4
REMARK    5  A    between atoms: C_13  and  C_14
REMARK    6  A    between atoms: C_14  and  N_15
REMARK    7  A    between atoms: C_16  and  C_18
REMARK                            x       y       z     vdW  Elec       q    Type
REMARK                         _______ _______ _______ _____ _____    ______ ____
ROOT
ATOM      1  C   UNL     1      45.429   4.652  12.220  0.00  0.00    +0.000 A 
ATOM      2  C   UNL     1      45.775   4.218  13.513  0.00  0.00    +0.000 A 
ATOM      3  C   UNL     1      46.729   4.883  14.277  0.00  0.00    +0.000 A 
ATOM      4  C   UNL     1      47.342   6.035  13.783  0.00  0.00    +0.000 A 
ATOM      5  C   UNL     1      46.975   6.512  12.520  0.00  0.00    +0.000 A 
ATOM      6  C   UNL     1      46.038   5.824  11.744  0.00  0.00    +0.000 A 
ENDROOT
BRANCH   1   8
ATOM      7  C   UNL     1      43.374   4.561  10.696  0.00  0.00    +0.000 C 
ATOM      8  C   UNL     1      44.561   3.788  11.303  0.00  0.00    +0.000 C 
BRANCH   8   9
ATOM      9  N   UNL     1      45.292   2.913  10.359  0.00  0.00    +0.000 NA
ATOM     10  H   UNL     1      45.575   2.056  10.829  0.00  0.00    +0.000 HD
BRANCH   9  11
ATOM     11  C   UNL     1      44.692   2.631   9.043  0.00  0.00    +0.000 C 
ATOM     12  C   UNL     1      45.087   1.302   8.404  0.00  0.00    +0.000 C 
ATOM     13  C   UNL     1      46.557   1.279   8.013  0.00  0.00    +0.000 C 
ATOM     14  N   UNL     1      46.792   2.263   6.958  0.00  0.00    +0.000 NA
ATOM     15  C   UNL     1      46.462   3.613   7.424  0.00  0.00    +0.000 C 
ATOM     16  C   UNL     1      45.050   3.734   8.013  0.00  0.00    +0.000 C 
ATOM     17  H   UNL     1      46.194   2.031   6.161  0.00  0.00    +0.000 HD
ENDBRANCH   9  11
ENDBRANCH   8   9
ENDBRANCH   1   8
BRANCH   4  18
ATOM     18  C   UNL     1      48.475   6.667  14.536  0.00  0.00    +0.000 C 
BRANCH  18  19
ATOM     19  N   UNL     1      48.284   6.474  15.948  0.00  0.00    +0.000 N 
ATOM     20  C   UNL     1      49.307   6.084  16.760  0.00  0.00    +0.000 C 
ATOM     21  O   UNL     1      50.445   5.896  16.342  0.00  0.00    +0.000 OA
ATOM     22  H   UNL     1      47.325   6.400  16.273  0.00  0.00    +0.000 HD
BRANCH  20  23
ATOM     23  C   UNL     1      48.987   5.972  18.191  0.00  0.00    +0.000 A 
ATOM     24  C   UNL     1      49.257   4.789  18.866  0.00  0.00    +0.000 A 
ATOM     25  S   UNL     1      48.892   4.857  20.529  0.00  0.00    +0.000 S 
ATOM     26  C   UNL     1      48.307   6.446  20.393  0.00  0.00    +0.000 A 
ATOM     27  N   UNL     1      47.806   7.105  21.474  0.00  0.00    +0.000 NA
ATOM     28  C   UNL     1      47.372   8.291  21.216  0.00  0.00    +0.000 A 
ATOM     29  N   UNL     1      47.389   8.894  19.984  0.00  0.00    +0.000 N 
ATOM     30  C   UNL     1      47.908   8.281  18.870  0.00  0.00    +0.000 A 
ATOM     31  O   UNL     1      47.961   8.854  17.788  0.00  0.00    +0.000 OA
ATOM     32  C   UNL     1      48.405   6.931  19.097  0.00  0.00    +0.000 A 
ATOM     33  H   UNL     1      47.046   9.823  19.856  0.00  0.00    +0.000 HD
ENDBRANCH  20  23
ENDBRANCH  18  19
ENDBRANCH   4  18
TORSDOF 6
ENDMDL
MODEL 6
REMARK VINA RESULT:    -6.052      3.187      7.755
REMARK INTER + INTRA:          -9.937
REMARK INTER:                  -8.641
REMARK INTRA:                  -1.297
REMARK UNBOUND:                -1.763
REMARK  Name = 
REMARK  7 active torsions:
REMARK  status: ('A' for Active; 'I' for Inactive)
REMARK    1  A    between atoms: C_1  and  C_2
REMARK    2  A    between atoms: C_2  and  N_3
REMARK    3  A    between atoms: C_2  and  C_10
REMARK    4  A    between atoms: N_3  and  C_4
REMARK    5  A    between atoms: C_13  and  C_14
REMARK    6  A    between atoms: C_14  and  N_15
REMARK    7  A    between atoms: C_16  and  C_18
REMARK                            x       y       z     vdW  Elec       q    Type
REMARK                         _______ _______ _______ _____ _____    ______ ____
ROOT
ATOM      1  C   UNL     1      50.076   5.463  17.753  0.00  0.00    +0.000 A 
ATOM      2  C   UNL     1      48.856   5.167  17.117  0.00  0.00    +0.000 A 
ATOM      3  C   UNL     1      48.425   5.873  15.998  0.00  0.00    +0.000 A 
ATOM      4  C   UNL     1      49.226   6.876  15.452  0.00  0.00    +0.000 A 
ATOM      5  C   UNL     1      50.465   7.151  16.039  0.00  0.00    +0.000 A 
ATOM      6  C   UNL     1      50.880   6.460  17.180  0.00  0.00    +0.000 A 
ENDROOT
BRANCH   1   8
ATOM      7  C   UNL     1      49.209   4.698  20.036  0.00  0.00    +0.000 C 
ATOM      8  C   UNL     1      50.429   4.848  19.109  0.00  0.00    +0.000 C 
BRANCH   8   9
ATOM      9  N   UNL     1      51.338   3.680  19.070  0.00  0.00    +0.000 NA
ATOM     10  H   UNL     1      50.930   2.905  19.589  0.00  0.00    +0.000 HD
BRANCH   9  11
ATOM     11  C   UNL     1      51.865   3.235  17.767  0.00  0.00    +0.000 C 
ATOM     12  C   UNL     1      51.194   2.004  17.165  0.00  0.00    +0.000 C 
ATOM     13  C   UNL     1      51.474   0.751  17.983  0.00  0.00    +0.000 C 
ATOM     14  N   UNL     1      52.901   0.442  17.922  0.00  0.00    +0.000 NA
ATOM     15  C   UNL     1      53.694   1.541  18.479  0.00  0.00    +0.000 C 
ATOM     16  C   UNL     1      53.379   2.907  17.855  0.00  0.00    +0.000 C 
ATOM     17  H   UNL     1      53.160   0.309  16.941  0.00  0.00    +0.000 HD
ENDBRANCH   9  11
ENDBRANCH   8   9
ENDBRANCH   1   8
BRANCH   4  18
ATOM     18  C   UNL     1      48.700   7.738  14.342  0.00  0.00    +0.000 C 
BRANCH  18  19
ATOM     19  N   UNL     1      47.443   7.216  13.878  0.00  0.00    +0.000 N 
ATOM     20  C   UNL     1      47.164   7.103  12.549  0.00  0.00    +0.000 C 
ATOM     21  O   UNL     1      47.968   7.418  11.678  0.00  0.00    +0.000 OA
ATOM     22  H   UNL     1      46.691   7.165  14.558  0.00  0.00    +0.000 HD
BRANCH  20  23
ATOM     23  C   UNL     1      45.862   6.508  12.212  0.00  0.00    +0.000 A 
ATOM     24  C   UNL     1      44.858   7.305  11.678  0.00  0.00    +0.000 A 
ATOM     25  S   UNL     1      43.444   6.442  11.280  0.00  0.00    +0.000 S 
ATOM     26  C   UNL     1      44.102   4.986  11.860  0.00  0.00    +0.000 A 
ATOM     27  N   UNL     1      43.382   3.831  11.835  0.00  0.00    +0.000 NA
ATOM     28  C   UNL     1      43.997   2.814  12.334  0.00  0.00    +0.000 A 
ATOM     29  N   UNL     1      45.266   2.829  12.854  0.00  0.00    +0.000 N 
ATOM     30  C   UNL     1      46.041   3.962  12.877  0.00  0.00    +0.000 A 
ATOM     31  O   UNL     1      47.192   3.945  13.300  0.00  0.00    +0.000 OA
ATOM     32  C   UNL     1      45.395   5.150  12.336  0.00  0.00    +0.000 A 
ATOM     33  H   UNL     1      45.688   1.999  13.216  0.00  0.00    +0.000 HD
ENDBRANCH  20  23
ENDBRANCH  18  19
ENDBRANCH   4  18
TORSDOF 6
ENDMDL
MODEL 7
REMARK VINA RESULT:    -5.991      3.068      7.173
REMARK INTER + INTRA:          -9.855
REMARK INTER:                  -8.871
REMARK INTRA:                  -0.984
REMARK UNBOUND:                -1.763
REMARK  Name = 
REMARK  7 active torsions:
REMARK  status: ('A' for Active; 'I' for Inactive)
REMARK    1  A    between atoms: C_1  and  C_2
REMARK    2  A    between atoms: C_2  and  N_3
REMARK    3  A    between atoms: C_2  and  C_10
REMARK    4  A    between atoms: N_3  and  C_4
REMARK    5  A    between atoms: C_13  and  C_14
REMARK    6  A    between atoms: C_14  and  N_15
REMARK    7  A    between atoms: C_16  and  C_18
REMARK                            x       y       z     vdW  Elec       q    Type
REMARK                         _______ _______ _______ _____ _____    ______ ____
ROOT
ATOM      1  C   UNL     1      49.862   7.339  15.818  0.00  0.00    +0.000 A 
ATOM      2  C   UNL     1      48.757   6.627  15.314  0.00  0.00    +0.000 A 
ATOM      3  C   UNL     1      48.300   6.812  14.012  0.00  0.00    +0.000 A 
ATOM      4  C   UNL     1      48.963   7.691  13.156  0.00  0.00    +0.000 A 
ATOM      5  C   UNL     1      50.094   8.371  13.622  0.00  0.00    +0.000 A 
ATOM      6  C   UNL     1      50.531   8.205  14.939  0.00  0.00    +0.000 A 
ENDROOT
BRANCH   1   8
ATOM      7  C   UNL     1      49.825   8.604  18.043  0.00  0.00    +0.000 C 
ATOM      8  C   UNL     1      50.209   7.306  17.307  0.00  0.00    +0.000 C 
BRANCH   8   9
ATOM      9  N   UNL     1      49.871   6.053  18.021  0.00  0.00    +0.000 NA
ATOM     10  H   UNL     1      50.595   5.835  18.701  0.00  0.00    +0.000 HD
BRANCH   9  11
ATOM     11  C   UNL     1      48.525   5.912  18.605  0.00  0.00    +0.000 C 
ATOM     12  C   UNL     1      48.458   5.927  20.129  0.00  0.00    +0.000 C 
ATOM     13  C   UNL     1      49.119   4.698  20.735  0.00  0.00    +0.000 C 
ATOM     14  N   UNL     1      48.360   3.506  20.359  0.00  0.00    +0.000 NA
ATOM     15  C   UNL     1      48.337   3.344  18.903  0.00  0.00    +0.000 C 
ATOM     16  C   UNL     1      47.851   4.590  18.152  0.00  0.00    +0.000 C 
ATOM     17  H   UNL     1      47.401   3.615  20.697  0.00  0.00    +0.000 HD
ENDBRANCH   9  11
ENDBRANCH   8   9
ENDBRANCH   1   8
BRANCH   4  18
ATOM     18  C   UNL     1      48.387   8.006  11.807  0.00  0.00    +0.000 C 
BRANCH  18  19
ATOM     19  N   UNL     1      47.633   6.878  11.329  0.00  0.00    +0.000 N 
ATOM     20  C   UNL     1      46.272   6.904  11.270  0.00  0.00    +0.000 C 
ATOM     21  O   UNL     1      45.616   7.887  11.600  0.00  0.00    +0.000 OA
ATOM     22  H   UNL     1      48.125   5.992  11.270  0.00  0.00    +0.000 HD
BRANCH  20  23
ATOM     23  C   UNL     1      45.628   5.703  10.716  0.00  0.00    +0.000 A 
ATOM     24  C   UNL     1      45.739   5.427   9.360  0.00  0.00    +0.000 A 
ATOM     25  S   UNL     1      44.996   3.963   8.901  0.00  0.00    +0.000 S 
ATOM     26  C   UNL     1      44.451   3.678  10.485  0.00  0.00    +0.000 A 
ATOM     27  N   UNL     1      43.710   2.576  10.785  0.00  0.00    +0.000 NA
ATOM     28  C   UNL     1      43.343   2.507  12.019  0.00  0.00    +0.000 A 
ATOM     29  N   UNL     1      43.643   3.425  12.991  0.00  0.00    +0.000 N 
ATOM     30  C   UNL     1      44.410   4.538  12.744  0.00  0.00    +0.000 A 
ATOM     31  O   UNL     1      44.711   5.322  13.637  0.00  0.00    +0.000 OA
ATOM     32  C   UNL     1      44.847   4.678  11.362  0.00  0.00    +0.000 A 
ATOM     33  H   UNL     1      43.335   3.303  13.933  0.00  0.00    +0.000 HD
ENDBRANCH  20  23
ENDBRANCH  18  19
ENDBRANCH   4  18
TORSDOF 6
ENDMDL
MODEL 8
REMARK VINA RESULT:    -5.965      3.128      7.823
REMARK INTER + INTRA:          -9.820
REMARK INTER:                  -8.586
REMARK INTRA:                  -1.234
REMARK UNBOUND:                -1.763
REMARK  Name = 
REMARK  7 active torsions:
REMARK  status: ('A' for Active; 'I' for Inactive)
REMARK    1  A    between atoms: C_1  and  C_2
REMARK    2  A    between atoms: C_2  and  N_3
REMARK    3  A    between atoms: C_2  and  C_10
REMARK    4  A    between atoms: N_3  and  C_4
REMARK    5  A    between atoms: C_13  and  C_14
REMARK    6  A    between atoms: C_14  and  N_15
REMARK    7  A    between atoms: C_16  and  C_18
REMARK                            x       y       z     vdW  Elec       q    Type
REMARK                         _______ _______ _______ _____ _____    ______ ____
ROOT
ATOM      1  C   UNL     1      50.376   7.153  15.638  0.00  0.00    +0.000 A 
ATOM      2  C   UNL     1      49.095   6.571  15.613  0.00  0.00    +0.000 A 
ATOM      3  C   UNL     1      48.258   6.694  14.508  0.00  0.00    +0.000 A 
ATOM      4  C   UNL     1      48.695   7.373  13.370  0.00  0.00    +0.000 A 
ATOM      5  C   UNL     1      49.985   7.915  13.356  0.00  0.00    +0.000 A 
ATOM      6  C   UNL     1      50.810   7.816  14.479  0.00  0.00    +0.000 A 
ENDROOT
BRANCH   1   8
ATOM      7  C   UNL     1      50.475   7.993  18.054  0.00  0.00    +0.000 C 
ATOM      8  C   UNL     1      51.190   7.215  16.932  0.00  0.00    +0.000 C 
BRANCH   8   9
ATOM      9  N   UNL     1      51.829   5.948  17.353  0.00  0.00    +0.000 NA
ATOM     10  H   UNL     1      52.824   6.097  17.510  0.00  0.00    +0.000 HD
BRANCH   9  11
ATOM     11  C   UNL     1      51.221   5.177  18.452  0.00  0.00    +0.000 C 
ATOM     12  C   UNL     1      52.199   4.521  19.422  0.00  0.00    +0.000 C 
ATOM     13  C   UNL     1      52.996   3.409  18.756  0.00  0.00    +0.000 C 
ATOM     14  N   UNL     1      52.091   2.325  18.377  0.00  0.00    +0.000 NA
ATOM     15  C   UNL     1      51.081   2.800  17.427  0.00  0.00    +0.000 C 
ATOM     16  C   UNL     1      50.316   4.040  17.909  0.00  0.00    +0.000 C 
ATOM     17  H   UNL     1      51.621   1.989  19.221  0.00  0.00    +0.000 HD
ENDBRANCH   9  11
ENDBRANCH   8   9
ENDBRANCH   1   8
BRANCH   4  18
ATOM     18  C   UNL     1      47.746   7.636  12.239  0.00  0.00    +0.000 C 
BRANCH  18  19
ATOM     19  N   UNL     1      47.012   6.438  11.935  0.00  0.00    +0.000 N 
ATOM     20  C   UNL     1      45.675   6.337  12.184  0.00  0.00    +0.000 C 
ATOM     21  O   UNL     1      45.021   7.260  12.658  0.00  0.00    +0.000 OA
ATOM     22  H   UNL     1      47.557   5.599  11.762  0.00  0.00    +0.000 HD
BRANCH  20  23
ATOM     23  C   UNL     1      45.038   5.074  11.780  0.00  0.00    +0.000 A 
ATOM     24  C   UNL     1      44.333   4.329  12.715  0.00  0.00    +0.000 A 
ATOM     25  S   UNL     1      43.599   2.936  12.062  0.00  0.00    +0.000 S 
ATOM     26  C   UNL     1      44.248   3.249  10.522  0.00  0.00    +0.000 A 
ATOM     27  N   UNL     1      44.018   2.405   9.479  0.00  0.00    +0.000 NA
ATOM     28  C   UNL     1      44.595   2.753   8.381  0.00  0.00    +0.000 A 
ATOM     29  N   UNL     1      45.379   3.865   8.212  0.00  0.00    +0.000 N 
ATOM     30  C   UNL     1      45.618   4.761   9.226  0.00  0.00    +0.000 A 
ATOM     31  O   UNL     1      46.281   5.776   9.044  0.00  0.00    +0.000 OA
ATOM     32  C   UNL     1      45.000   4.415  10.499  0.00  0.00    +0.000 A 
ATOM     33  H   UNL     1      45.789   4.082   7.328  0.00  0.00    +0.000 HD
ENDBRANCH  20  23
ENDBRANCH  18  19
ENDBRANCH   4  18
TORSDOF 6
ENDMDL
MODEL 9
REMARK VINA RESULT:    -5.960      1.843      2.354
REMARK INTER + INTRA:          -9.814
REMARK INTER:                  -8.763
REMARK INTRA:                  -1.051
REMARK UNBOUND:                -1.763
REMARK  Name = 
REMARK  7 active torsions:
REMARK  status: ('A' for Active; 'I' for Inactive)
REMARK    1  A    between atoms: C_1  and  C_2
REMARK    2  A    between atoms: C_2  and  N_3
REMARK    3  A    between atoms: C_2  and  C_10
REMARK    4  A    between atoms: N_3  and  C_4
REMARK    5  A    between atoms: C_13  and  C_14
REMARK    6  A    between atoms: C_14  and  N_15
REMARK    7  A    between atoms: C_16  and  C_18
REMARK                            x       y       z     vdW  Elec       q    Type
REMARK                         _______ _______ _______ _____ _____    ______ ____
ROOT
ATOM      1  C   UNL     1      45.922   7.193  12.623  0.00  0.00    +0.000 A 
ATOM      2  C   UNL     1      46.763   6.090  12.863  0.00  0.00    +0.000 A 
ATOM      3  C   UNL     1      47.970   6.226  13.543  0.00  0.00    +0.000 A 
ATOM      4  C   UNL     1      48.355   7.469  14.044  0.00  0.00    +0.000 A 
ATOM      5  C   UNL     1      47.508   8.568  13.860  0.00  0.00    +0.000 A 
ATOM      6  C   UNL     1      46.313   8.433  13.150  0.00  0.00    +0.000 A 
ENDROOT
BRANCH   1   8
ATOM      7  C   UNL     1      44.245   8.446  11.150  0.00  0.00    +0.000 C 
ATOM      8  C   UNL     1      44.724   7.080  11.678  0.00  0.00    +0.000 C 
BRANCH   8   9
ATOM      9  N   UNL     1      44.801   6.004  10.664  0.00  0.00    +0.000 NA
ATOM     10  H   UNL     1      45.638   5.445  10.816  0.00  0.00    +0.000 HD
BRANCH   9  11
ATOM     11  C   UNL     1      43.619   5.153  10.443  0.00  0.00    +0.000 C 
ATOM     12  C   UNL     1      42.915   4.653  11.701  0.00  0.00    +0.000 C 
ATOM     13  C   UNL     1      43.780   3.673  12.480  0.00  0.00    +0.000 C 
ATOM     14  N   UNL     1      43.979   2.464  11.682  0.00  0.00    +0.000 NA
ATOM     15  C   UNL     1      44.662   2.780  10.424  0.00  0.00    +0.000 C 
ATOM     16  C   UNL     1      43.980   3.891   9.615  0.00  0.00    +0.000 C 
ATOM     17  H   UNL     1      43.063   2.062  11.471  0.00  0.00    +0.000 HD
ENDBRANCH   9  11
ENDBRANCH   8   9
ENDBRANCH   1   8
BRANCH   4  18
ATOM     18  C   UNL     1      49.718   7.650  14.644  0.00  0.00    +0.000 C 
BRANCH  18  19
ATOM     19  N   UNL     1      49.617   7.666  16.078  0.00  0.00    +0.000 N 
ATOM     20  C   UNL     1      50.144   6.668  16.842  0.00  0.00    +0.000 C 
ATOM     21  O   UNL     1      50.748   5.716  16.358  0.00  0.00    +0.000 OA
ATOM     22  H   UNL     1      48.939   8.306  16.481  0.00  0.00    +0.000 HD
BRANCH  20  23
ATOM     23  C   UNL     1      50.014   6.833  18.298  0.00  0.00    +0.000 A 
ATOM     24  C   UNL     1      50.469   7.997  18.902  0.00  0.00    +0.000 A 
ATOM     25  S   UNL     1      50.174   8.052  20.580  0.00  0.00    +0.000 S 
ATOM     26  C   UNL     1      49.482   6.499  20.566  0.00  0.00    +0.000 A 
ATOM     27  N   UNL     1      49.031   5.921  21.713  0.00  0.00    +0.000 NA
ATOM     28  C   UNL     1      48.559   4.732  21.555  0.00  0.00    +0.000 A 
ATOM     29  N   UNL     1      48.486   4.057  20.364  0.00  0.00    +0.000 N 
ATOM     30  C   UNL     1      48.902   4.608  19.177  0.00  0.00    +0.000 A 
ATOM     31  O   UNL     1      48.782   4.009  18.114  0.00  0.00    +0.000 OA
ATOM     32  C   UNL     1      49.457   5.950  19.293  0.00  0.00    +0.000 A 
ATOM     33  H   UNL     1      48.096   3.139  20.311  0.00  0.00    +0.000 HD
ENDBRANCH  20  23
ENDBRANCH  18  19
ENDBRANCH   4  18
TORSDOF 6
ENDMDL
