MODEL 1
REMARK VINA RESULT:    -8.869      0.000      0.000
REMARK INTER + INTRA:         -13.790
REMARK INTER:                 -12.757
REMARK INTRA:                  -1.033
REMARK UNBOUND:                -1.033
REMARK  Name = 
REMARK  8 active torsions:
REMARK  status: ('A' for Active; 'I' for Inactive)
REMARK    1  A    between atoms: N_1  and  C_2
REMARK    2  A    between atoms: C_2  and  N_3
REMARK    3  A    between atoms: C_2  and  C_11
REMARK    4  A    between atoms: N_3  and  C_4
REMARK    5  A    between atoms: C_4  and  C_5
REMARK    6  A    between atoms: C_14  and  C_15
REMARK    7  A    between atoms: C_15  and  N_16
REMARK    8  A    between atoms: C_17  and  C_19
REMARK                            x       y       z     vdW  Elec       q    Type
REMARK                         _______ _______ _______ _____ _____    ______ ____
ROOT
ATOM      1  C   UNL     1      44.966   5.325  11.678  0.00  0.00    +0.000 A 
ATOM      2  C   UNL     1      45.859   6.273  11.143  0.00  0.00    +0.000 A 
ATOM      3  C   UNL     1      46.990   6.686  11.852  0.00  0.00    +0.000 A 
ATOM      4  C   UNL     1      47.276   6.134  13.105  0.00  0.00    +0.000 A 
ATOM      5  C   UNL     1      46.386   5.204  13.653  0.00  0.00    +0.000 A 
ATOM      6  C   UNL     1      45.245   4.807  12.951  0.00  0.00    +0.000 A 
ENDROOT
BRANCH   1   7
ATOM      7  C   UNL     1      43.721   4.949  10.890  0.00  0.00    +0.000 C 
BRANCH   7   8
ATOM      8  N   UNL     1      42.828   6.063  10.668  0.00  0.00    +0.000 NA
ATOM      9  H   UNL     1      42.400   6.267  11.568  0.00  0.00    +0.000 HD
ATOM     10  H   UNL     1      42.058   5.740  10.092  0.00  0.00    +0.000 HD
ENDBRANCH   7   8
BRANCH   7  11
ATOM     11  N   UNL     1      43.991   4.475   9.548  0.00  0.00    +0.000 NA
ATOM     12  H   UNL     1      44.749   5.022   9.153  0.00  0.00    +0.000 HD
BRANCH  11  13
ATOM     13  C   UNL     1      44.401   3.070   9.544  0.00  0.00    +0.000 C 
BRANCH  13  14
ATOM     14  C   UNL     1      45.425   2.773   8.473  0.00  0.00    +0.000 A 
ATOM     15  C   UNL     1      45.866   3.791   7.614  0.00  0.00    +0.000 A 
ATOM     16  C   UNL     1      46.873   3.544   6.679  0.00  0.00    +0.000 A 
ATOM     17  C   UNL     1      47.444   2.276   6.591  0.00  0.00    +0.000 A 
ATOM     18  C   UNL     1      47.001   1.253   7.426  0.00  0.00    +0.000 A 
ATOM     19  C   UNL     1      45.994   1.496   8.361  0.00  0.00    +0.000 A 
ENDBRANCH  13  14
ENDBRANCH  11  13
ENDBRANCH   7  11
ENDBRANCH   1   7
BRANCH   4  20
ATOM     20  C   UNL     1      48.498   6.557  13.874  0.00  0.00    +0.000 C 
BRANCH  20  21
ATOM     21  N   UNL     1      48.189   6.769  15.264  0.00  0.00    +0.000 N 
ATOM     22  C   UNL     1      49.135   6.553  16.233  0.00  0.00    +0.000 C 
ATOM     23  O   UNL     1      50.281   6.209  15.955  0.00  0.00    +0.000 OA
ATOM     24  H   UNL     1      47.209   6.823  15.521  0.00  0.00    +0.000 HD
BRANCH  22  25
ATOM     25  C   UNL     1      48.729   6.810  17.621  0.00  0.00    +0.000 A 
ATOM     26  C   UNL     1      48.375   8.100  17.997  0.00  0.00    +0.000 A 
ATOM     27  S   UNL     1      47.873   8.224  19.621  0.00  0.00    +0.000 S 
ATOM     28  C   UNL     1      48.163   6.572  19.893  0.00  0.00    +0.000 A 
ATOM     29  N   UNL     1      47.952   6.018  21.120  0.00  0.00    +0.000 NA
ATOM     30  C   UNL     1      48.246   4.763  21.196  0.00  0.00    +0.000 A 
ATOM     31  N   UNL     1      48.721   4.007  20.157  0.00  0.00    +0.000 N 
ATOM     32  C   UNL     1      48.916   4.513  18.894  0.00  0.00    +0.000 A 
ATOM     33  O   UNL     1      49.300   3.799  17.973  0.00  0.00    +0.000 OA
ATOM     34  C   UNL     1      48.617   5.929  18.755  0.00  0.00    +0.000 A 
ATOM     35  H   UNL     1      48.926   3.028  20.283  0.00  0.00    +0.000 HD
ENDBRANCH  22  25
ENDBRANCH  20  21
ENDBRANCH   4  20
TORSDOF 8
ENDMDL
MODEL 2
REMARK VINA RESULT:    -8.576      1.486      2.305
REMARK INTER + INTRA:         -13.370
REMARK INTER:                 -12.208
REMARK INTRA:                  -1.162
REMARK UNBOUND:                -1.033
REMARK  Name = 
REMARK  8 active torsions:
REMARK  status: ('A' for Active; 'I' for Inactive)
REMARK    1  A    between atoms: N_1  and  C_2
REMARK    2  A    between atoms: C_2  and  N_3
REMARK    3  A    between atoms: C_2  and  C_11
REMARK    4  A    between atoms: N_3  and  C_4
REMARK    5  A    between atoms: C_4  and  C_5
REMARK    6  A    between atoms: C_14  and  C_15
REMARK    7  A    between atoms: C_15  and  N_16
REMARK    8  A    between atoms: C_17  and  C_19
REMARK                            x       y       z     vdW  Elec       q    Type
REMARK                         _______ _______ _______ _____ _____    ______ ____
ROOT
ATOM      1  C   UNL     1      44.972   5.363  11.739  0.00  0.00    +0.000 A 
ATOM      2  C   UNL     1      45.773   6.437  11.302  0.00  0.00    +0.000 A 
ATOM      3  C   UNL     1      46.884   6.859  12.035  0.00  0.00    +0.000 A 
ATOM      4  C   UNL     1      47.245   6.194  13.212  0.00  0.00    +0.000 A 
ATOM      5  C   UNL     1      46.446   5.138  13.664  0.00  0.00    +0.000 A 
ATOM      6  C   UNL     1      45.324   4.729  12.939  0.00  0.00    +0.000 A 
ENDROOT
BRANCH   1   7
ATOM      7  C   UNL     1      43.742   4.978  10.932  0.00  0.00    +0.000 C 
BRANCH   7   8
ATOM      8  N   UNL     1      42.841   6.083  10.701  0.00  0.00    +0.000 NA
ATOM      9  H   UNL     1      43.065   6.444   9.777  0.00  0.00    +0.000 HD
ATOM     10  H   UNL     1      43.097   6.836  11.332  0.00  0.00    +0.000 HD
ENDBRANCH   7   8
BRANCH   7  11
ATOM     11  N   UNL     1      44.035   4.511   9.593  0.00  0.00    +0.000 NA
ATOM     12  H   UNL     1      44.818   5.041   9.224  0.00  0.00    +0.000 HD
BRANCH  11  13
ATOM     13  C   UNL     1      44.407   3.095   9.584  0.00  0.00    +0.000 C 
BRANCH  13  14
ATOM     14  C   UNL     1      45.397   2.768   8.490  0.00  0.00    +0.000 A 
ATOM     15  C   UNL     1      45.802   3.758   7.582  0.00  0.00    +0.000 A 
ATOM     16  C   UNL     1      46.778   3.486   6.623  0.00  0.00    +0.000 A 
ATOM     17  C   UNL     1      47.354   2.219   6.557  0.00  0.00    +0.000 A 
ATOM     18  C   UNL     1      46.946   1.221   7.441  0.00  0.00    +0.000 A 
ATOM     19  C   UNL     1      45.969   1.491   8.401  0.00  0.00    +0.000 A 
ENDBRANCH  13  14
ENDBRANCH  11  13
ENDBRANCH   7  11
ENDBRANCH   1   7
BRANCH   4  20
ATOM     20  C   UNL     1      48.448   6.627  14.005  0.00  0.00    +0.000 C 
BRANCH  20  21
ATOM     21  N   UNL     1      48.102   6.874  15.381  0.00  0.00    +0.000 N 
ATOM     22  C   UNL     1      48.884   6.388  16.397  0.00  0.00    +0.000 C 
ATOM     23  O   UNL     1      49.918   5.763  16.178  0.00  0.00    +0.000 OA
ATOM     24  H   UNL     1      47.153   7.177  15.576  0.00  0.00    +0.000 HD
BRANCH  22  25
ATOM     25  C   UNL     1      48.456   6.704  17.767  0.00  0.00    +0.000 A 
ATOM     26  C   UNL     1      48.369   5.682  18.704  0.00  0.00    +0.000 A 
ATOM     27  S   UNL     1      47.914   6.216  20.257  0.00  0.00    +0.000 S 
ATOM     28  C   UNL     1      47.765   7.821  19.720  0.00  0.00    +0.000 A 
ATOM     29  N   UNL     1      47.374   8.809  20.572  0.00  0.00    +0.000 NA
ATOM     30  C   UNL     1      47.266   9.974  20.024  0.00  0.00    +0.000 A 
ATOM     31  N   UNL     1      47.524  10.245  18.707  0.00  0.00    +0.000 N 
ATOM     32  C   UNL     1      47.956   9.288  17.818  0.00  0.00    +0.000 A 
ATOM     33  O   UNL     1      48.222   9.572  16.655  0.00  0.00    +0.000 OA
ATOM     34  C   UNL     1      48.076   7.952  18.378  0.00  0.00    +0.000 A 
ATOM     35  H   UNL     1      47.427  11.180  18.343  0.00  0.00    +0.000 HD
ENDBRANCH  22  25
ENDBRANCH  20  21
ENDBRANCH   4  20
TORSDOF 8
ENDMDL
MODEL 3
REMARK VINA RESULT:    -8.279      1.508      1.952
REMARK INTER + INTRA:         -12.942
REMARK INTER:                 -11.714
REMARK INTRA:                  -1.228
REMARK UNBOUND:                -1.033
REMARK  Name = 
REMARK  8 active torsions:
REMARK  status: ('A' for Active; 'I' for Inactive)
REMARK    1  A    between atoms: N_1  and  C_2
REMARK    2  A    between atoms: C_2  and  N_3
REMARK    3  A    between atoms: C_2  and  C_11
REMARK    4  A    between atoms: N_3  and  C_4
REMARK    5  A    between atoms: C_4  and  C_5
REMARK    6  A    between atoms: C_14  and  C_15
REMARK    7  A    between atoms: C_15  and  N_16
REMARK    8  A    between atoms: C_17  and  C_19
REMARK                            x       y       z     vdW  Elec       q    Type
REMARK                         _______ _______ _______ _____ _____    ______ ____
ROOT
ATOM      1  C   UNL     1      44.909   6.179  11.697  0.00  0.00    +0.000 A 
ATOM      2  C   UNL     1      45.121   7.571  11.723  0.00  0.00    +0.000 A 
ATOM      3  C   UNL     1      46.317   8.114  12.199  0.00  0.00    +0.000 A 
ATOM      4  C   UNL     1      47.349   7.274  12.631  0.00  0.00    +0.000 A 
ATOM      5  C   UNL     1      47.141   5.890  12.625  0.00  0.00    +0.000 A 
ATOM      6  C   UNL     1      45.937   5.350  12.167  0.00  0.00    +0.000 A 
ENDROOT
BRANCH   1   7
ATOM      7  C   UNL     1      43.569   5.641  11.220  0.00  0.00    +0.000 C 
BRANCH   7   8
ATOM      8  N   UNL     1      42.563   6.667  11.067  0.00  0.00    +0.000 NA
ATOM      9  H   UNL     1      42.853   7.439  11.662  0.00  0.00    +0.000 HD
ATOM     10  H   UNL     1      41.704   6.333  11.491  0.00  0.00    +0.000 HD
ENDBRANCH   7   8
BRANCH   7  11
ATOM     11  N   UNL     1      43.610   5.026   9.910  0.00  0.00    +0.000 NA
ATOM     12  H   UNL     1      44.328   5.483   9.356  0.00  0.00    +0.000 HD
BRANCH  11  13
ATOM     13  C   UNL     1      43.941   3.603   9.991  0.00  0.00    +0.000 C 
BRANCH  13  14
ATOM     14  C   UNL     1      45.042   3.213   9.032  0.00  0.00    +0.000 A 
ATOM     15  C   UNL     1      45.426   1.870   8.904  0.00  0.00    +0.000 A 
ATOM     16  C   UNL     1      46.382   1.491   7.960  0.00  0.00    +0.000 A 
ATOM     17  C   UNL     1      46.968   2.453   7.139  0.00  0.00    +0.000 A 
ATOM     18  C   UNL     1      46.608   3.793   7.270  0.00  0.00    +0.000 A 
ATOM     19  C   UNL     1      45.653   4.174   8.214  0.00  0.00    +0.000 A 
ENDBRANCH  13  14
ENDBRANCH  11  13
ENDBRANCH   7  11
ENDBRANCH   1   7
BRANCH   4  20
ATOM     20  C   UNL     1      48.649   7.843  13.131  0.00  0.00    +0.000 C 
BRANCH  20  21
ATOM     21  N   UNL     1      49.008   7.276  14.405  0.00  0.00    +0.000 N 
ATOM     22  C   UNL     1      48.713   7.933  15.572  0.00  0.00    +0.000 C 
ATOM     23  O   UNL     1      48.106   9.000  15.580  0.00  0.00    +0.000 OA
ATOM     24  H   UNL     1      49.698   6.532  14.406  0.00  0.00    +0.000 HD
BRANCH  22  25
ATOM     25  C   UNL     1      49.108   7.267  16.821  0.00  0.00    +0.000 A 
ATOM     26  C   UNL     1      49.816   7.984  17.778  0.00  0.00    +0.000 A 
ATOM     27  S   UNL     1      50.150   7.092  19.190  0.00  0.00    +0.000 S 
ATOM     28  C   UNL     1      49.408   5.702  18.554  0.00  0.00    +0.000 A 
ATOM     29  N   UNL     1      49.367   4.542  19.266  0.00  0.00    +0.000 NA
ATOM     30  C   UNL     1      48.807   3.557  18.649  0.00  0.00    +0.000 A 
ATOM     31  N   UNL     1      48.273   3.625  17.389  0.00  0.00    +0.000 N 
ATOM     32  C   UNL     1      48.259   4.781  16.646  0.00  0.00    +0.000 A 
ATOM     33  O   UNL     1      47.733   4.822  15.538  0.00  0.00    +0.000 OA
ATOM     34  C   UNL     1      48.895   5.921  17.287  0.00  0.00    +0.000 A 
ATOM     35  H   UNL     1      47.843   2.817  16.966  0.00  0.00    +0.000 HD
ENDBRANCH  22  25
ENDBRANCH  20  21
ENDBRANCH   4  20
TORSDOF 8
ENDMDL
MODEL 4
REMARK VINA RESULT:    -8.034      4.768      5.944
REMARK INTER + INTRA:         -12.590
REMARK INTER:                 -11.326
REMARK INTRA:                  -1.264
REMARK UNBOUND:                -1.033
REMARK  Name = 
REMARK  8 active torsions:
REMARK  status: ('A' for Active; 'I' for Inactive)
REMARK    1  A    between atoms: N_1  and  C_2
REMARK    2  A    between atoms: C_2  and  N_3
REMARK    3  A    between atoms: C_2  and  C_11
REMARK    4  A    between atoms: N_3  and  C_4
REMARK    5  A    between atoms: C_4  and  C_5
REMARK    6  A    between atoms: C_14  and  C_15
REMARK    7  A    between atoms: C_15  and  N_16
REMARK    8  A    between atoms: C_17  and  C_19
REMARK                            x       y       z     vdW  Elec       q    Type
REMARK                         _______ _______ _______ _____ _____    ______ ____
ROOT
ATOM      1  C   UNL     1      44.771   4.939  12.127  0.00  0.00    +0.000 A 
ATOM      2  C   UNL     1      44.168   6.008  11.437  0.00  0.00    +0.000 A 
ATOM      3  C   UNL     1      44.612   7.322  11.604  0.00  0.00    +0.000 A 
ATOM      4  C   UNL     1      45.697   7.598  12.442  0.00  0.00    +0.000 A 
ATOM      5  C   UNL     1      46.292   6.544  13.146  0.00  0.00    +0.000 A 
ATOM      6  C   UNL     1      45.833   5.233  12.993  0.00  0.00    +0.000 A 
ENDROOT
BRANCH   1   7
ATOM      7  C   UNL     1      44.215   3.534  11.952  0.00  0.00    +0.000 C 
BRANCH   7   8
ATOM      8  N   UNL     1      42.891   3.512  11.373  0.00  0.00    +0.000 NA
ATOM      9  H   UNL     1      42.254   3.278  12.130  0.00  0.00    +0.000 HD
ATOM     10  H   UNL     1      42.836   2.718  10.744  0.00  0.00    +0.000 HD
ENDBRANCH   7   8
BRANCH   7  11
ATOM     11  N   UNL     1      44.981   2.703  11.047  0.00  0.00    +0.000 NA
ATOM     12  H   UNL     1      44.996   1.754  11.406  0.00  0.00    +0.000 HD
BRANCH  11  13
ATOM     13  C   UNL     1      44.386   2.670   9.711  0.00  0.00    +0.000 C 
BRANCH  13  14
ATOM     14  C   UNL     1      45.429   2.607   8.618  0.00  0.00    +0.000 A 
ATOM     15  C   UNL     1      46.089   1.401   8.338  0.00  0.00    +0.000 A 
ATOM     16  C   UNL     1      46.990   1.314   7.276  0.00  0.00    +0.000 A 
ATOM     17  C   UNL     1      47.245   2.434   6.488  0.00  0.00    +0.000 A 
ATOM     18  C   UNL     1      46.610   3.643   6.768  0.00  0.00    +0.000 A 
ATOM     19  C   UNL     1      45.708   3.732   7.830  0.00  0.00    +0.000 A 
ENDBRANCH  13  14
ENDBRANCH  11  13
ENDBRANCH   7  11
ENDBRANCH   1   7
BRANCH   4  20
ATOM     20  C   UNL     1      46.198   9.005  12.620  0.00  0.00    +0.000 C 
BRANCH  20  21
ATOM     21  N   UNL     1      47.463   9.194  11.959  0.00  0.00    +0.000 N 
ATOM     22  C   UNL     1      48.383  10.085  12.449  0.00  0.00    +0.000 C 
ATOM     23  O   UNL     1      48.183  10.722  13.479  0.00  0.00    +0.000 OA
ATOM     24  H   UNL     1      47.544   8.860  11.004  0.00  0.00    +0.000 HD
BRANCH  22  25
ATOM     25  C   UNL     1      49.649  10.198  11.712  0.00  0.00    +0.000 A 
ATOM     26  C   UNL     1      50.092  11.452  11.311  0.00  0.00    +0.000 A 
ATOM     27  S   UNL     1      51.600  11.422  10.519  0.00  0.00    +0.000 S 
ATOM     28  C   UNL     1      51.690   9.729  10.636  0.00  0.00    +0.000 A 
ATOM     29  N   UNL     1      52.749   9.047  10.120  0.00  0.00    +0.000 NA
ATOM     30  C   UNL     1      52.671   7.765  10.247  0.00  0.00    +0.000 A 
ATOM     31  N   UNL     1      51.638   7.100  10.852  0.00  0.00    +0.000 N 
ATOM     32  C   UNL     1      50.565   7.747  11.419  0.00  0.00    +0.000 A 
ATOM     33  O   UNL     1      49.677   7.126  11.994  0.00  0.00    +0.000 OA
ATOM     34  C   UNL     1      50.592   9.194  11.289  0.00  0.00    +0.000 A 
ATOM     35  H   UNL     1      51.641   6.095  10.923  0.00  0.00    +0.000 HD
ENDBRANCH  22  25
ENDBRANCH  20  21
ENDBRANCH   4  20
TORSDOF 8
ENDMDL
MODEL 5
REMARK VINA RESULT:    -7.993      2.323      2.975
REMARK INTER + INTRA:         -12.530
REMARK INTER:                 -11.321
REMARK INTRA:                  -1.209
REMARK UNBOUND:                -1.033
REMARK  Name = 
REMARK  8 active torsions:
REMARK  status: ('A' for Active; 'I' for Inactive)
REMARK    1  A    between atoms: N_1  and  C_2
REMARK    2  A    between atoms: C_2  and  N_3
REMARK    3  A    between atoms: C_2  and  C_11
REMARK    4  A    between atoms: N_3  and  C_4
REMARK    5  A    between atoms: C_4  and  C_5
REMARK    6  A    between atoms: C_14  and  C_15
REMARK    7  A    between atoms: C_15  and  N_16
REMARK    8  A    between atoms: C_17  and  C_19
REMARK                            x       y       z     vdW  Elec       q    Type
REMARK                         _______ _______ _______ _____ _____    ______ ____
ROOT
ATOM      1  C   UNL     1      45.505   4.208  12.015  0.00  0.00    +0.000 A 
ATOM      2  C   UNL     1      46.195   4.152  13.241  0.00  0.00    +0.000 A 
ATOM      3  C   UNL     1      46.949   5.235  13.700  0.00  0.00    +0.000 A 
ATOM      4  C   UNL     1      47.003   6.420  12.958  0.00  0.00    +0.000 A 
ATOM      5  C   UNL     1      46.334   6.479  11.730  0.00  0.00    +0.000 A 
ATOM      6  C   UNL     1      45.598   5.388  11.263  0.00  0.00    +0.000 A 
ENDROOT
BRANCH   1   7
ATOM      7  C   UNL     1      44.744   2.982  11.534  0.00  0.00    +0.000 C 
BRANCH   7   8
ATOM      8  N   UNL     1      43.643   2.619  12.396  0.00  0.00    +0.000 NA
ATOM      9  H   UNL     1      43.925   1.766  12.873  0.00  0.00    +0.000 HD
ATOM     10  H   UNL     1      42.865   2.333  11.811  0.00  0.00    +0.000 HD
ENDBRANCH   7   8
BRANCH   7  11
ATOM     11  N   UNL     1      44.106   3.150  10.244  0.00  0.00    +0.000 NA
ATOM     12  H   UNL     1      44.481   3.982   9.799  0.00  0.00    +0.000 HD
BRANCH  11  13
ATOM     13  C   UNL     1      44.366   2.012   9.362  0.00  0.00    +0.000 C 
BRANCH  13  14
ATOM     14  C   UNL     1      45.528   2.261   8.429  0.00  0.00    +0.000 A 
ATOM     15  C   UNL     1      46.373   1.205   8.054  0.00  0.00    +0.000 A 
ATOM     16  C   UNL     1      47.396   1.409   7.127  0.00  0.00    +0.000 A 
ATOM     17  C   UNL     1      47.587   2.672   6.569  0.00  0.00    +0.000 A 
ATOM     18  C   UNL     1      46.766   3.732   6.948  0.00  0.00    +0.000 A 
ATOM     19  C   UNL     1      45.743   3.531   7.876  0.00  0.00    +0.000 A 
ENDBRANCH  13  14
ENDBRANCH  11  13
ENDBRANCH   7  11
ENDBRANCH   1   7
BRANCH   4  20
ATOM     20  C   UNL     1      47.796   7.600  13.447  0.00  0.00    +0.000 C 
BRANCH  20  21
ATOM     21  N   UNL     1      49.046   7.182  14.029  0.00  0.00    +0.000 N 
ATOM     22  C   UNL     1      49.363   7.516  15.320  0.00  0.00    +0.000 C 
ATOM     23  O   UNL     1      48.590   8.147  16.036  0.00  0.00    +0.000 OA
ATOM     24  H   UNL     1      49.775   6.872  13.395  0.00  0.00    +0.000 HD
BRANCH  22  25
ATOM     25  C   UNL     1      50.654   7.032  15.829  0.00  0.00    +0.000 A 
ATOM     26  C   UNL     1      51.822   7.675  15.439  0.00  0.00    +0.000 A 
ATOM     27  S   UNL     1      53.227   7.033  16.156  0.00  0.00    +0.000 S 
ATOM     28  C   UNL     1      52.332   5.840  16.969  0.00  0.00    +0.000 A 
ATOM     29  N   UNL     1      52.950   4.920  17.761  0.00  0.00    +0.000 NA
ATOM     30  C   UNL     1      52.155   4.050  18.289  0.00  0.00    +0.000 A 
ATOM     31  N   UNL     1      50.798   4.020  18.108  0.00  0.00    +0.000 N 
ATOM     32  C   UNL     1      50.126   4.947  17.347  0.00  0.00    +0.000 A 
ATOM     33  O   UNL     1      48.904   4.920  17.241  0.00  0.00    +0.000 OA
ATOM     34  C   UNL     1      50.976   5.941  16.713  0.00  0.00    +0.000 A 
ATOM     35  H   UNL     1      50.233   3.315  18.555  0.00  0.00    +0.000 HD
ENDBRANCH  22  25
ENDBRANCH  20  21
ENDBRANCH   4  20
TORSDOF 8
ENDMDL
MODEL 6
REMARK VINA RESULT:    -7.920      2.383      2.838
REMARK INTER + INTRA:         -12.426
REMARK INTER:                 -11.469
REMARK INTRA:                  -0.957
REMARK UNBOUND:                -1.033
REMARK  Name = 
REMARK  8 active torsions:
REMARK  status: ('A' for Active; 'I' for Inactive)
REMARK    1  A    between atoms: N_1  and  C_2
REMARK    2  A    between atoms: C_2  and  N_3
REMARK    3  A    between atoms: C_2  and  C_11
REMARK    4  A    between atoms: N_3  and  C_4
REMARK    5  A    between atoms: C_4  and  C_5
REMARK    6  A    between atoms: C_14  and  C_15
REMARK    7  A    between atoms: C_15  and  N_16
REMARK    8  A    between atoms: C_17  and  C_19
REMARK                            x       y       z     vdW  Elec       q    Type
REMARK                         _______ _______ _______ _____ _____    ______ ____
ROOT
ATOM      1  C   UNL     1      45.848   5.353  11.944  0.00  0.00    +0.000 A 
ATOM      2  C   UNL     1      46.441   6.573  11.567  0.00  0.00    +0.000 A 
ATOM      3  C   UNL     1      47.255   7.289  12.449  0.00  0.00    +0.000 A 
ATOM      4  C   UNL     1      47.525   6.783  13.725  0.00  0.00    +0.000 A 
ATOM      5  C   UNL     1      46.926   5.580  14.116  0.00  0.00    +0.000 A 
ATOM      6  C   UNL     1      46.097   4.876  13.239  0.00  0.00    +0.000 A 
ENDROOT
BRANCH   1   7
ATOM      7  C   UNL     1      44.927   4.640  10.966  0.00  0.00    +0.000 C 
BRANCH   7   8
ATOM      8  N   UNL     1      43.535   4.989  11.136  0.00  0.00    +0.000 NA
ATOM      9  H   UNL     1      43.299   4.754  12.098  0.00  0.00    +0.000 HD
ATOM     10  H   UNL     1      42.979   4.348  10.579  0.00  0.00    +0.000 HD
ENDBRANCH   7   8
BRANCH   7  11
ATOM     11  N   UNL     1      45.177   4.962   9.577  0.00  0.00    +0.000 NA
ATOM     12  H   UNL     1      46.179   4.970   9.417  0.00  0.00    +0.000 HD
BRANCH  11  13
ATOM     13  C   UNL     1      44.585   3.971   8.678  0.00  0.00    +0.000 C 
BRANCH  13  14
ATOM     14  C   UNL     1      45.627   3.097   8.020  0.00  0.00    +0.000 A 
ATOM     15  C   UNL     1      45.800   1.768   8.435  0.00  0.00    +0.000 A 
ATOM     16  C   UNL     1      46.700   0.929   7.775  0.00  0.00    +0.000 A 
ATOM     17  C   UNL     1      47.440   1.413   6.699  0.00  0.00    +0.000 A 
ATOM     18  C   UNL     1      47.291   2.737   6.289  0.00  0.00    +0.000 A 
ATOM     19  C   UNL     1      46.391   3.578   6.948  0.00  0.00    +0.000 A 
ENDBRANCH  13  14
ENDBRANCH  11  13
ENDBRANCH   7  11
ENDBRANCH   1   7
BRANCH   4  20
ATOM     20  C   UNL     1      48.412   7.534  14.680  0.00  0.00    +0.000 C 
BRANCH  20  21
ATOM     21  N   UNL     1      49.410   6.667  15.252  0.00  0.00    +0.000 N 
ATOM     22  C   UNL     1      49.381   6.349  16.586  0.00  0.00    +0.000 C 
ATOM     23  O   UNL     1      48.492   6.755  17.329  0.00  0.00    +0.000 OA
ATOM     24  H   UNL     1      50.260   6.519  14.717  0.00  0.00    +0.000 HD
BRANCH  22  25
ATOM     25  C   UNL     1      50.434   5.448  17.072  0.00  0.00    +0.000 A 
ATOM     26  C   UNL     1      51.613   5.988  17.571  0.00  0.00    +0.000 A 
ATOM     27  S   UNL     1      52.710   4.819  18.147  0.00  0.00    +0.000 S 
ATOM     28  C   UNL     1      51.674   3.548  17.701  0.00  0.00    +0.000 A 
ATOM     29  N   UNL     1      52.032   2.250  17.902  0.00  0.00    +0.000 NA
ATOM     30  C   UNL     1      51.168   1.387  17.483  0.00  0.00    +0.000 A 
ATOM     31  N   UNL     1      49.973   1.701  16.892  0.00  0.00    +0.000 N 
ATOM     32  C   UNL     1      49.552   2.996  16.700  0.00  0.00    +0.000 A 
ATOM     33  O   UNL     1      48.457   3.244  16.208  0.00  0.00    +0.000 OA
ATOM     34  C   UNL     1      50.497   4.010  17.137  0.00  0.00    +0.000 A 
ATOM     35  H   UNL     1      49.339   0.976  16.592  0.00  0.00    +0.000 HD
ENDBRANCH  22  25
ENDBRANCH  20  21
ENDBRANCH   4  20
TORSDOF 8
ENDMDL
MODEL 7
REMARK VINA RESULT:    -7.592      3.089      4.729
REMARK INTER + INTRA:         -11.954
REMARK INTER:                 -10.740
REMARK INTRA:                  -1.214
REMARK UNBOUND:                -1.033
REMARK  Name = 
REMARK  8 active torsions:
REMARK  status: ('A' for Active; 'I' for Inactive)
REMARK    1  A    between atoms: N_1  and  C_2
REMARK    2  A    between atoms: C_2  and  N_3
REMARK    3  A    between atoms: C_2  and  C_11
REMARK    4  A    between atoms: N_3  and  C_4
REMARK    5  A    between atoms: C_4  and  C_5
REMARK    6  A    between atoms: C_14  and  C_15
REMARK    7  A    between atoms: C_15  and  N_16
REMARK    8  A    between atoms: C_17  and  C_19
REMARK                            x       y       z     vdW  Elec       q    Type
REMARK                         _______ _______ _______ _____ _____    ______ ____
ROOT
ATOM      1  C   UNL     1      44.620   4.111  11.978  0.00  0.00    +0.000 A 
ATOM      2  C   UNL     1      44.824   5.486  12.208  0.00  0.00    +0.000 A 
ATOM      3  C   UNL     1      45.842   5.938  13.050  0.00  0.00    +0.000 A 
ATOM      4  C   UNL     1      46.710   5.025  13.660  0.00  0.00    +0.000 A 
ATOM      5  C   UNL     1      46.505   3.656  13.451  0.00  0.00    +0.000 A 
ATOM      6  C   UNL     1      45.473   3.205  12.624  0.00  0.00    +0.000 A 
ENDROOT
BRANCH   1   7
ATOM      7  C   UNL     1      43.463   3.669  11.096  0.00  0.00    +0.000 C 
BRANCH   7   8
ATOM      8  N   UNL     1      42.374   4.617  11.066  0.00  0.00    +0.000 NA
ATOM      9  H   UNL     1      42.317   4.954  10.108  0.00  0.00    +0.000 HD
ATOM     10  H   UNL     1      42.650   5.433  11.602  0.00  0.00    +0.000 HD
ENDBRANCH   7   8
BRANCH   7  11
ATOM     11  N   UNL     1      43.808   3.524   9.697  0.00  0.00    +0.000 NA
ATOM     12  H   UNL     1      44.449   4.268   9.438  0.00  0.00    +0.000 HD
BRANCH  11  13
ATOM     13  C   UNL     1      44.472   2.247   9.434  0.00  0.00    +0.000 C 
BRANCH  13  14
ATOM     14  C   UNL     1      45.550   2.365   8.382  0.00  0.00    +0.000 A 
ATOM     15  C   UNL     1      45.801   3.598   7.761  0.00  0.00    +0.000 A 
ATOM     16  C   UNL     1      46.851   3.734   6.851  0.00  0.00    +0.000 A 
ATOM     17  C   UNL     1      47.656   2.638   6.549  0.00  0.00    +0.000 A 
ATOM     18  C   UNL     1      47.404   1.403   7.145  0.00  0.00    +0.000 A 
ATOM     19  C   UNL     1      46.354   1.264   8.054  0.00  0.00    +0.000 A 
ENDBRANCH  13  14
ENDBRANCH  11  13
ENDBRANCH   7  11
ENDBRANCH   1   7
BRANCH   4  20
ATOM     20  C   UNL     1      47.822   5.496  14.557  0.00  0.00    +0.000 C 
BRANCH  20  21
ATOM     21  N   UNL     1      47.922   6.933  14.548  0.00  0.00    +0.000 N 
ATOM     22  C   UNL     1      49.125   7.552  14.773  0.00  0.00    +0.000 C 
ATOM     23  O   UNL     1      50.158   6.915  14.953  0.00  0.00    +0.000 OA
ATOM     24  H   UNL     1      47.059   7.461  14.633  0.00  0.00    +0.000 HD
BRANCH  22  25
ATOM     25  C   UNL     1      49.128   9.021  14.731  0.00  0.00    +0.000 A 
ATOM     26  C   UNL     1      49.496   9.732  15.866  0.00  0.00    +0.000 A 
ATOM     27  S   UNL     1      49.505  11.421  15.641  0.00  0.00    +0.000 S 
ATOM     28  C   UNL     1      48.965  11.264  14.038  0.00  0.00    +0.000 A 
ATOM     29  N   UNL     1      48.741  12.363  13.265  0.00  0.00    +0.000 NA
ATOM     30  C   UNL     1      48.299  12.101  12.081  0.00  0.00    +0.000 A 
ATOM     31  N   UNL     1      48.071  10.842  11.592  0.00  0.00    +0.000 N 
ATOM     32  C   UNL     1      48.317   9.703  12.321  0.00  0.00    +0.000 A 
ATOM     33  O   UNL     1      48.146   8.588  11.839  0.00  0.00    +0.000 OA
ATOM     34  C   UNL     1      48.799   9.940  13.671  0.00  0.00    +0.000 A 
ATOM     35  H   UNL     1      47.730  10.706  10.653  0.00  0.00    +0.000 HD
ENDBRANCH  22  25
ENDBRANCH  20  21
ENDBRANCH   4  20
TORSDOF 8
ENDMDL
MODEL 8
REMARK VINA RESULT:    -7.553      3.140      4.019
REMARK INTER + INTRA:         -11.898
REMARK INTER:                 -10.774
REMARK INTRA:                  -1.125
REMARK UNBOUND:                -1.033
REMARK  Name = 
REMARK  8 active torsions:
REMARK  status: ('A' for Active; 'I' for Inactive)
REMARK    1  A    between atoms: N_1  and  C_2
REMARK    2  A    between atoms: C_2  and  N_3
REMARK    3  A    between atoms: C_2  and  C_11
REMARK    4  A    between atoms: N_3  and  C_4
REMARK    5  A    between atoms: C_4  and  C_5
REMARK    6  A    between atoms: C_14  and  C_15
REMARK    7  A    between atoms: C_15  and  N_16
REMARK    8  A    between atoms: C_17  and  C_19
REMARK                            x       y       z     vdW  Elec       q    Type
REMARK                         _______ _______ _______ _____ _____    ______ ____
ROOT
ATOM      1  C   UNL     1      46.887   4.995  13.869  0.00  0.00    +0.000 A 
ATOM      2  C   UNL     1      47.622   6.161  13.579  0.00  0.00    +0.000 A 
ATOM      3  C   UNL     1      48.489   6.725  14.518  0.00  0.00    +0.000 A 
ATOM      4  C   UNL     1      48.672   6.115  15.763  0.00  0.00    +0.000 A 
ATOM      5  C   UNL     1      47.933   4.966  16.068  0.00  0.00    +0.000 A 
ATOM      6  C   UNL     1      47.051   4.415  15.135  0.00  0.00    +0.000 A 
ENDROOT
BRANCH   1   7
ATOM      7  C   UNL     1      45.915   4.453  12.833  0.00  0.00    +0.000 C 
BRANCH   7   8
ATOM      8  N   UNL     1      44.597   4.197  13.366  0.00  0.00    +0.000 NA
ATOM      9  H   UNL     1      44.187   3.476  12.777  0.00  0.00    +0.000 HD
ATOM     10  H   UNL     1      44.023   5.016  13.194  0.00  0.00    +0.000 HD
ENDBRANCH   7   8
BRANCH   7  11
ATOM     11  N   UNL     1      45.653   5.360  11.735  0.00  0.00    +0.000 NA
ATOM     12  H   UNL     1      46.489   5.435  11.164  0.00  0.00    +0.000 HD
BRANCH  11  13
ATOM     13  C   UNL     1      44.567   4.876  10.882  0.00  0.00    +0.000 C 
BRANCH  13  14
ATOM     14  C   UNL     1      45.069   4.016   9.745  0.00  0.00    +0.000 A 
ATOM     15  C   UNL     1      45.724   4.602   8.651  0.00  0.00    +0.000 A 
ATOM     16  C   UNL     1      46.264   3.807   7.638  0.00  0.00    +0.000 A 
ATOM     17  C   UNL     1      46.151   2.420   7.708  0.00  0.00    +0.000 A 
ATOM     18  C   UNL     1      45.486   1.828   8.780  0.00  0.00    +0.000 A 
ATOM     19  C   UNL     1      44.944   2.620   9.793  0.00  0.00    +0.000 A 
ENDBRANCH  13  14
ENDBRANCH  11  13
ENDBRANCH   7  11
ENDBRANCH   1   7
BRANCH   4  20
ATOM     20  C   UNL     1      49.614   6.701  16.779  0.00  0.00    +0.000 C 
BRANCH  20  21
ATOM     21  N   UNL     1      50.653   5.765  17.124  0.00  0.00    +0.000 N 
ATOM     22  C   UNL     1      50.822   5.352  18.420  0.00  0.00    +0.000 C 
ATOM     23  O   UNL     1      50.081   5.730  19.323  0.00  0.00    +0.000 OA
ATOM     24  H   UNL     1      51.401   5.629  16.450  0.00  0.00    +0.000 HD
BRANCH  22  25
ATOM     25  C   UNL     1      51.900   4.386  18.670  0.00  0.00    +0.000 A 
ATOM     26  C   UNL     1      52.991   4.769  19.440  0.00  0.00    +0.000 A 
ATOM     27  S   UNL     1      54.126   3.523  19.686  0.00  0.00    +0.000 S 
ATOM     28  C   UNL     1      53.229   2.444  18.727  0.00  0.00    +0.000 A 
ATOM     29  N   UNL     1      53.669   1.174  18.504  0.00  0.00    +0.000 NA
ATOM     30  C   UNL     1      52.910   0.475  17.729  0.00  0.00    +0.000 A 
ATOM     31  N   UNL     1      51.744   0.922  17.165  0.00  0.00    +0.000 N 
ATOM     32  C   UNL     1      51.242   2.182  17.390  0.00  0.00    +0.000 A 
ATOM     33  O   UNL     1      50.172   2.537  16.906  0.00  0.00    +0.000 OA
ATOM     34  C   UNL     1      52.068   3.020  18.242  0.00  0.00    +0.000 A 
ATOM     35  H   UNL     1      51.193   0.320  16.572  0.00  0.00    +0.000 HD
ENDBRANCH  22  25
ENDBRANCH  20  21
ENDBRANCH   4  20
TORSDOF 8
ENDMDL
MODEL 9
REMARK VINA RESULT:    -7.193      3.435      8.974
REMARK INTER + INTRA:         -11.380
REMARK INTER:                  -9.730
REMARK INTRA:                  -1.650
REMARK UNBOUND:                -1.033
REMARK  Name = 
REMARK  8 active torsions:
REMARK  status: ('A' for Active; 'I' for Inactive)
REMARK    1  A    between atoms: N_1  and  C_2
REMARK    2  A    between atoms: C_2  and  N_3
REMARK    3  A    between atoms: C_2  and  C_11
REMARK    4  A    between atoms: N_3  and  C_4
REMARK    5  A    between atoms: C_4  and  C_5
REMARK    6  A    between atoms: C_14  and  C_15
REMARK    7  A    between atoms: C_15  and  N_16
REMARK    8  A    between atoms: C_17  and  C_19
REMARK                            x       y       z     vdW  Elec       q    Type
REMARK                         _______ _______ _______ _____ _____    ______ ____
ROOT
ATOM      1  C   UNL     1      49.220   8.244  15.990  0.00  0.00    +0.000 A 
ATOM      2  C   UNL     1      49.710   7.236  15.137  0.00  0.00    +0.000 A 
ATOM      3  C   UNL     1      49.224   7.087  13.836  0.00  0.00    +0.000 A 
ATOM      4  C   UNL     1      48.256   7.968  13.340  0.00  0.00    +0.000 A 
ATOM      5  C   UNL     1      47.751   8.962  14.186  0.00  0.00    +0.000 A 
ATOM      6  C   UNL     1      48.224   9.097  15.494  0.00  0.00    +0.000 A 
ENDROOT
BRANCH   1   7
ATOM      7  C   UNL     1      49.743   8.330  17.416  0.00  0.00    +0.000 C 
BRANCH   7   8
ATOM      8  N   UNL     1      48.729   8.705  18.374  0.00  0.00    +0.000 NA
ATOM      9  H   UNL     1      48.801   8.039  19.139  0.00  0.00    +0.000 HD
ATOM     10  H   UNL     1      47.821   8.516  17.963  0.00  0.00    +0.000 HD
ENDBRANCH   7   8
BRANCH   7  11
ATOM     11  N   UNL     1      50.239   7.075  17.940  0.00  0.00    +0.000 NA
ATOM     12  H   UNL     1      51.025   7.264  18.555  0.00  0.00    +0.000 HD
BRANCH  11  13
ATOM     13  C   UNL     1      49.218   6.374  18.718  0.00  0.00    +0.000 C 
BRANCH  13  14
ATOM     14  C   UNL     1      48.845   5.042  18.109  0.00  0.00    +0.000 A 
ATOM     15  C   UNL     1      47.525   4.796  17.701  0.00  0.00    +0.000 A 
ATOM     16  C   UNL     1      47.191   3.601  17.060  0.00  0.00    +0.000 A 
ATOM     17  C   UNL     1      48.171   2.640  16.827  0.00  0.00    +0.000 A 
ATOM     18  C   UNL     1      49.482   2.865  17.244  0.00  0.00    +0.000 A 
ATOM     19  C   UNL     1      49.818   4.058  17.886  0.00  0.00    +0.000 A 
ENDBRANCH  13  14
ENDBRANCH  11  13
ENDBRANCH   7  11
ENDBRANCH   1   7
BRANCH   4  20
ATOM     20  C   UNL     1      47.735   7.830  11.936  0.00  0.00    +0.000 C 
BRANCH  20  21
ATOM     21  N   UNL     1      47.030   6.586  11.763  0.00  0.00    +0.000 N 
ATOM     22  C   UNL     1      45.660   6.554  11.736  0.00  0.00    +0.000 C 
ATOM     23  O   UNL     1      44.986   7.577  11.821  0.00  0.00    +0.000 OA
ATOM     24  H   UNL     1      47.551   5.730  11.924  0.00  0.00    +0.000 HD
BRANCH  22  25
ATOM     25  C   UNL     1      45.034   5.239  11.542  0.00  0.00    +0.000 A 
ATOM     26  C   UNL     1      44.356   4.647  12.599  0.00  0.00    +0.000 A 
ATOM     27  S   UNL     1      43.639   3.154  12.200  0.00  0.00    +0.000 S 
ATOM     28  C   UNL     1      44.255   3.220  10.618  0.00  0.00    +0.000 A 
ATOM     29  N   UNL     1      44.021   2.210   9.734  0.00  0.00    +0.000 NA
ATOM     30  C   UNL     1      44.578   2.372   8.580  0.00  0.00    +0.000 A 
ATOM     31  N   UNL     1      45.337   3.455   8.223  0.00  0.00    +0.000 N 
ATOM     32  C   UNL     1      45.571   4.514   9.068  0.00  0.00    +0.000 A 
ATOM     33  O   UNL     1      46.218   5.490   8.704  0.00  0.00    +0.000 OA
ATOM     34  C   UNL     1      44.982   4.375  10.390  0.00  0.00    +0.000 A 
ATOM     35  H   UNL     1      45.739   3.522   7.301  0.00  0.00    +0.000 HD
ENDBRANCH  22  25
ENDBRANCH  20  21
ENDBRANCH   4  20
TORSDOF 8
ENDMDL
