MODEL 1
REMARK VINA RESULT:    -8.323      0.000      0.000
REMARK INTER + INTRA:         -11.429
REMARK INTER:                 -10.756
REMARK INTRA:                  -0.673
REMARK UNBOUND:                -0.673
REMARK  Name = 
REMARK  5 active torsions:
REMARK  status: ('A' for Active; 'I' for Inactive)
REMARK    1  A    between atoms: C_2  and  C_4
REMARK    2  A    between atoms: C_7  and  N_8
REMARK    3  A    between atoms: N_8  and  C_9
REMARK    4  A    between atoms: C_9  and  C_10
REMARK    5  A    between atoms: C_14  and  C_15
REMARK                            x       y       z     vdW  Elec       q    Type
REMARK                         _______ _______ _______ _____ _____    ______ ____
ROOT
ATOM      1  C   UNL     1      43.597   4.308  11.149  0.00  0.00    +0.000 C 
ENDROOT
BRANCH   1   2
ATOM      2  C   UNL     1      44.780   4.690  11.997  0.00  0.00    +0.000 A 
ATOM      3  C   UNL     1      45.393   3.751  12.819  0.00  0.00    +0.000 A 
ATOM      4  N   UNL     1      46.464   4.011  13.596  0.00  0.00    +0.000 NA
ATOM      5  C   UNL     1      46.971   5.259  13.523  0.00  0.00    +0.000 A 
ATOM      6  C   UNL     1      46.464   6.279  12.716  0.00  0.00    +0.000 A 
ATOM      7  C   UNL     1      45.314   5.988  11.982  0.00  0.00    +0.000 A 
BRANCH   6   8
ATOM      8  C   UNL     1      47.231   7.571  12.600  0.00  0.00    +0.000 C 
ATOM      9  C   UNL     1      48.464   7.487  11.688  0.00  0.00    +0.000 C 
ATOM     10  C   UNL     1      49.297   8.756  11.867  0.00  0.00    +0.000 C 
ATOM     11  N   UNL     1      48.527   9.972  11.586  0.00  0.00    +0.000 NA
ATOM     12  C   UNL     1      47.276  10.039  12.349  0.00  0.00    +0.000 C 
ATOM     13  C   UNL     1      46.406   8.788  12.169  0.00  0.00    +0.000 C 
ATOM     14  H   UNL     1      48.312  10.008  10.590  0.00  0.00    +0.000 HD
ENDBRANCH   6   8
ENDBRANCH   1   2
BRANCH   1  15
ATOM     15  N   UNL     1      43.808   4.806   9.792  0.00  0.00    +0.000 N 
ATOM     16  H   UNL     1      44.081   5.786   9.792  0.00  0.00    +0.000 HD
BRANCH  15  20
ATOM     17  C   UNL     1      46.458   2.492   7.683  0.00  0.00    +0.000 A 
ATOM     18  C   UNL     1      46.469   3.872   7.551  0.00  0.00    +0.000 A 
ATOM     19  N   UNL     1      45.600   4.672   8.220  0.00  0.00    +0.000 NA
ATOM     20  C   UNL     1      44.710   4.056   9.028  0.00  0.00    +0.000 A 
ATOM     21  C   UNL     1      44.723   2.659   9.150  0.00  0.00    +0.000 A 
ATOM     22  N   UNL     1      45.576   1.842   8.485  0.00  0.00    +0.000 NA
BRANCH  17  24
ATOM     23  N   UNL     1      48.497   2.360   6.385  0.00  0.00    +0.000 N 
ATOM     24  C   UNL     1      47.448   1.672   6.934  0.00  0.00    +0.000 C 
ATOM     25  O   UNL     1      47.334   0.459   6.812  0.00  0.00    +0.000 OA
ATOM     26  H   UNL     1      49.190   1.860   5.855  0.00  0.00    +0.000 HD
ATOM     27  H   UNL     1      48.550   3.368   6.491  0.00  0.00    +0.000 HD
ENDBRANCH  17  24
ENDBRANCH  15  20
ENDBRANCH   1  15
TORSDOF 5
ENDMDL
MODEL 2
REMARK VINA RESULT:    -7.584      1.599      2.341
REMARK INTER + INTRA:         -10.473
REMARK INTER:                  -9.815
REMARK INTRA:                  -0.658
REMARK UNBOUND:                -0.673
REMARK  Name = 
REMARK  5 active torsions:
REMARK  status: ('A' for Active; 'I' for Inactive)
REMARK    1  A    between atoms: C_2  and  C_4
REMARK    2  A    between atoms: C_7  and  N_8
REMARK    3  A    between atoms: N_8  and  C_9
REMARK    4  A    between atoms: C_9  and  C_10
REMARK    5  A    between atoms: C_14  and  C_15
REMARK                            x       y       z     vdW  Elec       q    Type
REMARK                         _______ _______ _______ _____ _____    ______ ____
ROOT
ATOM      1  C   UNL     1      44.486   4.837  11.279  0.00  0.00    +0.000 C 
ENDROOT
BRANCH   1   2
ATOM      2  C   UNL     1      45.077   6.203  11.505  0.00  0.00    +0.000 A 
ATOM      3  C   UNL     1      44.281   7.340  11.414  0.00  0.00    +0.000 A 
ATOM      4  N   UNL     1      44.731   8.595  11.617  0.00  0.00    +0.000 NA
ATOM      5  C   UNL     1      46.030   8.720  11.962  0.00  0.00    +0.000 A 
ATOM      6  C   UNL     1      46.919   7.655  12.113  0.00  0.00    +0.000 A 
ATOM      7  C   UNL     1      46.431   6.380  11.825  0.00  0.00    +0.000 A 
BRANCH   6   8
ATOM      8  C   UNL     1      48.294   7.923  12.670  0.00  0.00    +0.000 C 
ATOM      9  C   UNL     1      48.704   6.973  13.805  0.00  0.00    +0.000 C 
ATOM     10  C   UNL     1      49.978   7.509  14.460  0.00  0.00    +0.000 C 
ATOM     11  N   UNL     1      51.073   7.671  13.499  0.00  0.00    +0.000 NA
ATOM     12  C   UNL     1      50.689   8.475  12.333  0.00  0.00    +0.000 C 
ATOM     13  C   UNL     1      49.427   7.946  11.639  0.00  0.00    +0.000 C 
ATOM     14  H   UNL     1      51.378   6.751  13.183  0.00  0.00    +0.000 HD
ENDBRANCH   6   8
ENDBRANCH   1   2
BRANCH   1  15
ATOM     15  N   UNL     1      44.029   4.743   9.894  0.00  0.00    +0.000 N 
ATOM     16  H   UNL     1      43.742   5.650   9.534  0.00  0.00    +0.000 HD
BRANCH  15  20
ATOM     17  C   UNL     1      46.721   2.859   7.438  0.00  0.00    +0.000 A 
ATOM     18  C   UNL     1      46.643   4.242   7.466  0.00  0.00    +0.000 A 
ATOM     19  N   UNL     1      45.758   4.904   8.255  0.00  0.00    +0.000 NA
ATOM     20  C   UNL     1      44.942   4.144   9.017  0.00  0.00    +0.000 A 
ATOM     21  C   UNL     1      45.043   2.746   8.975  0.00  0.00    +0.000 A 
ATOM     22  N   UNL     1      45.914   2.066   8.190  0.00  0.00    +0.000 NA
BRANCH  17  24
ATOM     23  N   UNL     1      47.913   2.765   5.333  0.00  0.00    +0.000 N 
ATOM     24  C   UNL     1      47.725   2.194   6.565  0.00  0.00    +0.000 C 
ATOM     25  O   UNL     1      48.343   1.199   6.919  0.00  0.00    +0.000 OA
ATOM     26  H   UNL     1      48.570   2.350   4.694  0.00  0.00    +0.000 HD
ATOM     27  H   UNL     1      47.370   3.579   5.066  0.00  0.00    +0.000 HD
ENDBRANCH  17  24
ENDBRANCH  15  20
ENDBRANCH   1  15
TORSDOF 5
ENDMDL
MODEL 3
REMARK VINA RESULT:    -6.932      3.020      7.021
REMARK INTER + INTRA:          -9.631
REMARK INTER:                  -9.699
REMARK INTRA:                   0.069
REMARK UNBOUND:                -0.673
REMARK  Name = 
REMARK  5 active torsions:
REMARK  status: ('A' for Active; 'I' for Inactive)
REMARK    1  A    between atoms: C_2  and  C_4
REMARK    2  A    between atoms: C_7  and  N_8
REMARK    3  A    between atoms: N_8  and  C_9
REMARK    4  A    between atoms: C_9  and  C_10
REMARK    5  A    between atoms: C_14  and  C_15
REMARK                            x       y       z     vdW  Elec       q    Type
REMARK                         _______ _______ _______ _____ _____    ______ ____
ROOT
ATOM      1  C   UNL     1      44.750   6.241  11.095  0.00  0.00    +0.000 C 
ENDROOT
BRANCH   1   2
ATOM      2  C   UNL     1      44.609   4.853  10.529  0.00  0.00    +0.000 A 
ATOM      3  C   UNL     1      43.617   3.997  10.997  0.00  0.00    +0.000 A 
ATOM      4  N   UNL     1      43.417   2.747  10.532  0.00  0.00    +0.000 NA
ATOM      5  C   UNL     1      44.222   2.343   9.526  0.00  0.00    +0.000 A 
ATOM      6  C   UNL     1      45.231   3.119   8.953  0.00  0.00    +0.000 A 
ATOM      7  C   UNL     1      45.451   4.379   9.511  0.00  0.00    +0.000 A 
BRANCH   6   8
ATOM      8  C   UNL     1      45.937   2.610   7.723  0.00  0.00    +0.000 C 
ATOM      9  C   UNL     1      46.823   3.657   7.032  0.00  0.00    +0.000 C 
ATOM     10  C   UNL     1      47.258   3.114   5.671  0.00  0.00    +0.000 C 
ATOM     11  N   UNL     1      47.962   1.832   5.782  0.00  0.00    +0.000 NA
ATOM     12  C   UNL     1      47.202   0.833   6.541  0.00  0.00    +0.000 C 
ATOM     13  C   UNL     1      46.772   1.341   7.924  0.00  0.00    +0.000 C 
ATOM     14  H   UNL     1      48.861   1.983   6.238  0.00  0.00    +0.000 HD
ENDBRANCH   6   8
ENDBRANCH   1   2
BRANCH   1  15
ATOM     15  N   UNL     1      46.161   6.495  11.375  0.00  0.00    +0.000 N 
ATOM     16  H   UNL     1      46.384   7.485  11.296  0.00  0.00    +0.000 HD
BRANCH  15  20
ATOM     17  C   UNL     1      47.319   4.998  15.014  0.00  0.00    +0.000 A 
ATOM     18  C   UNL     1      48.005   6.055  14.438  0.00  0.00    +0.000 A 
ATOM     19  N   UNL     1      47.663   6.571  13.230  0.00  0.00    +0.000 NA
ATOM     20  C   UNL     1      46.613   5.998  12.603  0.00  0.00    +0.000 A 
ATOM     21  C   UNL     1      45.930   4.933  13.209  0.00  0.00    +0.000 A 
ATOM     22  N   UNL     1      46.260   4.398  14.410  0.00  0.00    +0.000 NA
BRANCH  17  24
ATOM     23  N   UNL     1      47.059   5.012  17.420  0.00  0.00    +0.000 N 
ATOM     24  C   UNL     1      47.733   4.489  16.348  0.00  0.00    +0.000 C 
ATOM     25  O   UNL     1      48.622   3.659  16.485  0.00  0.00    +0.000 OA
ATOM     26  H   UNL     1      47.306   4.716  18.349  0.00  0.00    +0.000 HD
ATOM     27  H   UNL     1      46.339   5.711  17.271  0.00  0.00    +0.000 HD
ENDBRANCH  17  24
ENDBRANCH  15  20
ENDBRANCH   1  15
TORSDOF 5
ENDMDL
MODEL 4
REMARK VINA RESULT:    -6.802      2.815      6.649
REMARK INTER + INTRA:          -9.463
REMARK INTER:                  -9.009
REMARK INTRA:                  -0.453
REMARK UNBOUND:                -0.673
REMARK  Name = 
REMARK  5 active torsions:
REMARK  status: ('A' for Active; 'I' for Inactive)
REMARK    1  A    between atoms: C_2  and  C_4
REMARK    2  A    between atoms: C_7  and  N_8
REMARK    3  A    between atoms: N_8  and  C_9
REMARK    4  A    between atoms: C_9  and  C_10
REMARK    5  A    between atoms: C_14  and  C_15
REMARK                            x       y       z     vdW  Elec       q    Type
REMARK                         _______ _______ _______ _____ _____    ______ ____
ROOT
ATOM      1  C   UNL     1      43.811   3.198  12.766  0.00  0.00    +0.000 C 
ENDROOT
BRANCH   1   2
ATOM      2  C   UNL     1      44.035   3.523  11.313  0.00  0.00    +0.000 A 
ATOM      3  C   UNL     1      43.365   4.586  10.716  0.00  0.00    +0.000 A 
ATOM      4  N   UNL     1      43.522   4.949   9.427  0.00  0.00    +0.000 NA
ATOM      5  C   UNL     1      44.417   4.240   8.707  0.00  0.00    +0.000 A 
ATOM      6  C   UNL     1      45.170   3.174   9.201  0.00  0.00    +0.000 A 
ATOM      7  C   UNL     1      44.926   2.786  10.519  0.00  0.00    +0.000 A 
BRANCH   6   8
ATOM      8  C   UNL     1      46.256   2.584   8.339  0.00  0.00    +0.000 C 
ATOM      9  C   UNL     1      46.097   1.080   8.073  0.00  0.00    +0.000 C 
ATOM     10  C   UNL     1      47.381   0.553   7.432  0.00  0.00    +0.000 C 
ATOM     11  N   UNL     1      47.719   1.265   6.196  0.00  0.00    +0.000 NA
ATOM     12  C   UNL     1      47.766   2.720   6.375  0.00  0.00    +0.000 C 
ATOM     13  C   UNL     1      46.479   3.282   6.993  0.00  0.00    +0.000 C 
ATOM     14  H   UNL     1      47.028   1.039   5.481  0.00  0.00    +0.000 HD
ENDBRANCH   6   8
ENDBRANCH   1   2
BRANCH   1  15
ATOM     15  N   UNL     1      43.916   4.429  13.547  0.00  0.00    +0.000 N 
ATOM     16  H   UNL     1      43.653   4.277  14.519  0.00  0.00    +0.000 HD
BRANCH  15  20
ATOM     17  C   UNL     1      47.617   6.195  13.493  0.00  0.00    +0.000 A 
ATOM     18  C   UNL     1      46.507   6.873  13.014  0.00  0.00    +0.000 A 
ATOM     19  N   UNL     1      45.268   6.320  13.002  0.00  0.00    +0.000 NA
ATOM     20  C   UNL     1      45.164   5.060  13.479  0.00  0.00    +0.000 A 
ATOM     21  C   UNL     1      46.300   4.397  13.963  0.00  0.00    +0.000 A 
ATOM     22  N   UNL     1      47.547   4.928  13.977  0.00  0.00    +0.000 NA
BRANCH  17  24
ATOM     23  N   UNL     1      49.591   6.909  12.287  0.00  0.00    +0.000 N 
ATOM     24  C   UNL     1      48.946   6.864  13.494  0.00  0.00    +0.000 C 
ATOM     25  O   UNL     1      49.436   7.342  14.509  0.00  0.00    +0.000 OA
ATOM     26  H   UNL     1      50.500   7.336  12.230  0.00  0.00    +0.000 HD
ATOM     27  H   UNL     1      49.163   6.487  11.470  0.00  0.00    +0.000 HD
ENDBRANCH  17  24
ENDBRANCH  15  20
ENDBRANCH   1  15
TORSDOF 5
ENDMDL
MODEL 5
REMARK VINA RESULT:    -6.775      3.529      7.490
REMARK INTER + INTRA:          -9.429
REMARK INTER:                  -8.914
REMARK INTRA:                  -0.514
REMARK UNBOUND:                -0.673
REMARK  Name = 
REMARK  5 active torsions:
REMARK  status: ('A' for Active; 'I' for Inactive)
REMARK    1  A    between atoms: C_2  and  C_4
REMARK    2  A    between atoms: C_7  and  N_8
REMARK    3  A    between atoms: N_8  and  C_9
REMARK    4  A    between atoms: C_9  and  C_10
REMARK    5  A    between atoms: C_14  and  C_15
REMARK                            x       y       z     vdW  Elec       q    Type
REMARK                         _______ _______ _______ _____ _____    ______ ____
ROOT
ATOM      1  C   UNL     1      44.902   5.510  13.108  0.00  0.00    +0.000 C 
ENDROOT
BRANCH   1   2
ATOM      2  C   UNL     1      44.608   4.414  12.119  0.00  0.00    +0.000 A 
ATOM      3  C   UNL     1      43.420   3.694  12.194  0.00  0.00    +0.000 A 
ATOM      4  N   UNL     1      43.078   2.710  11.339  0.00  0.00    +0.000 NA
ATOM      5  C   UNL     1      43.947   2.452  10.339  0.00  0.00    +0.000 A 
ATOM      6  C   UNL     1      45.155   3.124  10.142  0.00  0.00    +0.000 A 
ATOM      7  C   UNL     1      45.503   4.087  11.089  0.00  0.00    +0.000 A 
BRANCH   6   8
ATOM      8  C   UNL     1      45.945   2.855   8.887  0.00  0.00    +0.000 C 
ATOM      9  C   UNL     1      45.915   1.389   8.430  0.00  0.00    +0.000 C 
ATOM     10  C   UNL     1      46.956   1.194   7.328  0.00  0.00    +0.000 C 
ATOM     11  N   UNL     1      46.740   2.095   6.192  0.00  0.00    +0.000 NA
ATOM     12  C   UNL     1      46.642   3.502   6.595  0.00  0.00    +0.000 C 
ATOM     13  C   UNL     1      45.586   3.733   7.684  0.00  0.00    +0.000 C 
ATOM     14  H   UNL     1      45.882   1.826   5.711  0.00  0.00    +0.000 HD
ENDBRANCH   6   8
ENDBRANCH   1   2
BRANCH   1  15
ATOM     15  N   UNL     1      46.345   5.731  13.154  0.00  0.00    +0.000 N 
ATOM     16  H   UNL     1      46.580   6.704  12.970  0.00  0.00    +0.000 HD
BRANCH  15  20
ATOM     17  C   UNL     1      48.310   4.537  16.550  0.00  0.00    +0.000 A 
ATOM     18  C   UNL     1      47.233   3.810  16.069  0.00  0.00    +0.000 A 
ATOM     19  N   UNL     1      46.547   4.178  14.956  0.00  0.00    +0.000 NA
ATOM     20  C   UNL     1      46.965   5.302  14.334  0.00  0.00    +0.000 A 
ATOM     21  C   UNL     1      48.061   6.017  14.837  0.00  0.00    +0.000 A 
ATOM     22  N   UNL     1      48.754   5.671  15.949  0.00  0.00    +0.000 NA
BRANCH  17  24
ATOM     23  N   UNL     1      48.271   3.950  18.899  0.00  0.00    +0.000 N 
ATOM     24  C   UNL     1      49.031   4.070  17.765  0.00  0.00    +0.000 C 
ATOM     25  O   UNL     1      50.227   3.811  17.757  0.00  0.00    +0.000 OA
ATOM     26  H   UNL     1      48.707   3.652  19.754  0.00  0.00    +0.000 HD
ATOM     27  H   UNL     1      47.285   4.190  18.873  0.00  0.00    +0.000 HD
ENDBRANCH  17  24
ENDBRANCH  15  20
ENDBRANCH   1  15
TORSDOF 5
ENDMDL
MODEL 6
REMARK VINA RESULT:    -6.766      1.750      3.264
REMARK INTER + INTRA:          -9.416
REMARK INTER:                  -8.984
REMARK INTRA:                  -0.432
REMARK UNBOUND:                -0.673
REMARK  Name = 
REMARK  5 active torsions:
REMARK  status: ('A' for Active; 'I' for Inactive)
REMARK    1  A    between atoms: C_2  and  C_4
REMARK    2  A    between atoms: C_7  and  N_8
REMARK    3  A    between atoms: N_8  and  C_9
REMARK    4  A    between atoms: C_9  and  C_10
REMARK    5  A    between atoms: C_14  and  C_15
REMARK                            x       y       z     vdW  Elec       q    Type
REMARK                         _______ _______ _______ _____ _____    ______ ____
ROOT
ATOM      1  C   UNL     1      43.668   5.330  10.658  0.00  0.00    +0.000 C 
ENDROOT
BRANCH   1   2
ATOM      2  C   UNL     1      44.693   6.038  11.502  0.00  0.00    +0.000 A 
ATOM      3  C   UNL     1      44.953   7.391  11.311  0.00  0.00    +0.000 A 
ATOM      4  N   UNL     1      45.844   8.098  12.034  0.00  0.00    +0.000 NA
ATOM      5  C   UNL     1      46.482   7.434  13.021  0.00  0.00    +0.000 A 
ATOM      6  C   UNL     1      46.285   6.087  13.329  0.00  0.00    +0.000 A 
ATOM      7  C   UNL     1      45.408   5.374  12.511  0.00  0.00    +0.000 A 
BRANCH   6   8
ATOM      8  C   UNL     1      46.933   5.516  14.565  0.00  0.00    +0.000 C 
ATOM      9  C   UNL     1      47.159   3.998  14.508  0.00  0.00    +0.000 C 
ATOM     10  C   UNL     1      47.559   3.507  15.899  0.00  0.00    +0.000 C 
ATOM     11  N   UNL     1      48.751   4.190  16.410  0.00  0.00    +0.000 NA
ATOM     12  C   UNL     1      48.627   5.651  16.372  0.00  0.00    +0.000 C 
ATOM     13  C   UNL     1      48.251   6.176  14.980  0.00  0.00    +0.000 C 
ATOM     14  H   UNL     1      49.559   3.910  15.855  0.00  0.00    +0.000 HD
ENDBRANCH   6   8
ENDBRANCH   1   2
BRANCH   1  15
ATOM     15  N   UNL     1      44.019   3.914  10.576  0.00  0.00    +0.000 N 
ATOM     16  H   UNL     1      43.191   3.324  10.577  0.00  0.00    +0.000 HD
BRANCH  15  20
ATOM     17  C   UNL     1      46.500   2.796   7.506  0.00  0.00    +0.000 A 
ATOM     18  C   UNL     1      46.232   4.135   7.741  0.00  0.00    +0.000 A 
ATOM     19  N   UNL     1      45.407   4.546   8.738  0.00  0.00    +0.000 NA
ATOM     20  C   UNL     1      44.847   3.579   9.497  0.00  0.00    +0.000 A 
ATOM     21  C   UNL     1      45.138   2.232   9.243  0.00  0.00    +0.000 A 
ATOM     22  N   UNL     1      45.953   1.800   8.250  0.00  0.00    +0.000 NA
BRANCH  17  24
ATOM     23  N   UNL     1      47.011   2.723   5.141  0.00  0.00    +0.000 N 
ATOM     24  C   UNL     1      47.427   2.411   6.409  0.00  0.00    +0.000 C 
ATOM     25  O   UNL     1      48.494   1.849   6.621  0.00  0.00    +0.000 OA
ATOM     26  H   UNL     1      47.591   2.473   4.358  0.00  0.00    +0.000 HD
ATOM     27  H   UNL     1      46.113   3.173   5.002  0.00  0.00    +0.000 HD
ENDBRANCH  17  24
ENDBRANCH  15  20
ENDBRANCH   1  15
TORSDOF 5
ENDMDL
MODEL 7
REMARK VINA RESULT:    -6.594      4.540      7.941
REMARK INTER + INTRA:          -9.195
REMARK INTER:                  -8.587
REMARK INTRA:                  -0.608
REMARK UNBOUND:                -0.673
REMARK  Name = 
REMARK  5 active torsions:
REMARK  status: ('A' for Active; 'I' for Inactive)
REMARK    1  A    between atoms: C_2  and  C_4
REMARK    2  A    between atoms: C_7  and  N_8
REMARK    3  A    between atoms: N_8  and  C_9
REMARK    4  A    between atoms: C_9  and  C_10
REMARK    5  A    between atoms: C_14  and  C_15
REMARK                            x       y       z     vdW  Elec       q    Type
REMARK                         _______ _______ _______ _____ _____    ______ ____
ROOT
ATOM      1  C   UNL     1      48.647   6.459  15.707  0.00  0.00    +0.000 C 
ENDROOT
BRANCH   1   2
ATOM      2  C   UNL     1      48.085   6.525  14.312  0.00  0.00    +0.000 A 
ATOM      3  C   UNL     1      48.690   7.318  13.343  0.00  0.00    +0.000 A 
ATOM      4  N   UNL     1      48.256   7.418  12.070  0.00  0.00    +0.000 NA
ATOM      5  C   UNL     1      47.187   6.664  11.738  0.00  0.00    +0.000 A 
ATOM      6  C   UNL     1      46.513   5.810  12.611  0.00  0.00    +0.000 A 
ATOM      7  C   UNL     1      46.951   5.789  13.936  0.00  0.00    +0.000 A 
BRANCH   6   8
ATOM      8  C   UNL     1      45.446   4.897  12.065  0.00  0.00    +0.000 C 
ATOM      9  C   UNL     1      44.456   4.388  13.123  0.00  0.00    +0.000 C 
ATOM     10  C   UNL     1      43.606   3.275  12.509  0.00  0.00    +0.000 C 
ATOM     11  N   UNL     1      42.896   3.717  11.305  0.00  0.00    +0.000 NA
ATOM     12  C   UNL     1      43.788   4.323  10.311  0.00  0.00    +0.000 C 
ATOM     13  C   UNL     1      44.636   5.461  10.892  0.00  0.00    +0.000 C 
ATOM     14  H   UNL     1      42.182   4.396  11.569  0.00  0.00    +0.000 HD
ENDBRANCH   6   8
ENDBRANCH   1   2
BRANCH   1  15
ATOM     15  N   UNL     1      48.076   5.303  16.393  0.00  0.00    +0.000 N 
ATOM     16  H   UNL     1      47.307   4.898  15.864  0.00  0.00    +0.000 HD
BRANCH  15  20
ATOM     17  C   UNL     1      50.916   2.504  17.359  0.00  0.00    +0.000 A 
ATOM     18  C   UNL     1      49.734   2.124  16.744  0.00  0.00    +0.000 A 
ATOM     19  N   UNL     1      48.763   3.016  16.420  0.00  0.00    +0.000 NA
ATOM     20  C   UNL     1      49.002   4.308  16.732  0.00  0.00    +0.000 A 
ATOM     21  C   UNL     1      50.208   4.670  17.348  0.00  0.00    +0.000 A 
ATOM     22  N   UNL     1      51.186   3.795  17.686  0.00  0.00    +0.000 NA
BRANCH  17  24
ATOM     23  N   UNL     1      51.474   0.277  18.125  0.00  0.00    +0.000 N 
ATOM     24  C   UNL     1      51.948   1.480  17.672  0.00  0.00    +0.000 C 
ATOM     25  O   UNL     1      53.145   1.695  17.538  0.00  0.00    +0.000 OA
ATOM     26  H   UNL     1      52.126  -0.449  18.366  0.00  0.00    +0.000 HD
ATOM     27  H   UNL     1      50.475   0.140  18.241  0.00  0.00    +0.000 HD
ENDBRANCH  17  24
ENDBRANCH  15  20
ENDBRANCH   1  15
TORSDOF 5
ENDMDL
MODEL 8
REMARK VINA RESULT:    -6.430      5.132      6.910
REMARK INTER + INTRA:          -8.982
REMARK INTER:                  -8.449
REMARK INTRA:                  -0.533
REMARK UNBOUND:                -0.673
REMARK  Name = 
REMARK  5 active torsions:
REMARK  status: ('A' for Active; 'I' for Inactive)
REMARK    1  A    between atoms: C_2  and  C_4
REMARK    2  A    between atoms: C_7  and  N_8
REMARK    3  A    between atoms: N_8  and  C_9
REMARK    4  A    between atoms: C_9  and  C_10
REMARK    5  A    between atoms: C_14  and  C_15
REMARK                            x       y       z     vdW  Elec       q    Type
REMARK                         _______ _______ _______ _____ _____    ______ ____
ROOT
ATOM      1  C   UNL     1      47.093   4.275  16.279  0.00  0.00    +0.000 C 
ENDROOT
BRANCH   1   2
ATOM      2  C   UNL     1      48.385   3.586  16.627  0.00  0.00    +0.000 A 
ATOM      3  C   UNL     1      48.641   2.295  16.177  0.00  0.00    +0.000 A 
ATOM      4  N   UNL     1      49.779   1.618  16.434  0.00  0.00    +0.000 NA
ATOM      5  C   UNL     1      50.722   2.272  17.144  0.00  0.00    +0.000 A 
ATOM      6  C   UNL     1      50.594   3.576  17.624  0.00  0.00    +0.000 A 
ATOM      7  C   UNL     1      49.375   4.216  17.397  0.00  0.00    +0.000 A 
BRANCH   6   8
ATOM      8  C   UNL     1      51.790   4.246  18.251  0.00  0.00    +0.000 C 
ATOM      9  C   UNL     1      52.875   3.269  18.728  0.00  0.00    +0.000 C 
ATOM     10  C   UNL     1      53.889   4.036  19.578  0.00  0.00    +0.000 C 
ATOM     11  N   UNL     1      54.487   5.160  18.852  0.00  0.00    +0.000 NA
ATOM     12  C   UNL     1      53.483   6.059  18.273  0.00  0.00    +0.000 C 
ATOM     13  C   UNL     1      52.465   5.322  17.394  0.00  0.00    +0.000 C 
ATOM     14  H   UNL     1      55.080   4.798  18.105  0.00  0.00    +0.000 HD
ENDBRANCH   6   8
ENDBRANCH   1   2
BRANCH   1  15
ATOM     15  N   UNL     1      47.306   5.113  15.102  0.00  0.00    +0.000 N 
ATOM     16  H   UNL     1      48.290   5.151  14.844  0.00  0.00    +0.000 HD
BRANCH  15  20
ATOM     17  C   UNL     1      44.925   4.232  11.881  0.00  0.00    +0.000 A 
ATOM     18  C   UNL     1      45.596   3.224  12.556  0.00  0.00    +0.000 A 
ATOM     19  N   UNL     1      46.404   3.475  13.618  0.00  0.00    +0.000 NA
ATOM     20  C   UNL     1      46.530   4.768  13.989  0.00  0.00    +0.000 A 
ATOM     21  C   UNL     1      45.836   5.768  13.295  0.00  0.00    +0.000 A 
ATOM     22  N   UNL     1      45.031   5.540  12.228  0.00  0.00    +0.000 NA
BRANCH  17  24
ATOM     23  N   UNL     1      43.667   4.938   9.937  0.00  0.00    +0.000 N 
ATOM     24  C   UNL     1      44.041   3.889  10.735  0.00  0.00    +0.000 C 
ATOM     25  O   UNL     1      43.666   2.744  10.517  0.00  0.00    +0.000 OA
ATOM     26  H   UNL     1      43.057   4.769   9.155  0.00  0.00    +0.000 HD
ATOM     27  H   UNL     1      43.982   5.877  10.158  0.00  0.00    +0.000 HD
ENDBRANCH  17  24
ENDBRANCH  15  20
ENDBRANCH   1  15
TORSDOF 5
ENDMDL
MODEL 9
REMARK VINA RESULT:    -6.354      3.288      7.134
REMARK INTER + INTRA:          -8.885
REMARK INTER:                  -8.332
REMARK INTRA:                  -0.553
REMARK UNBOUND:                -0.673
REMARK  Name = 
REMARK  5 active torsions:
REMARK  status: ('A' for Active; 'I' for Inactive)
REMARK    1  A    between atoms: C_2  and  C_4
REMARK    2  A    between atoms: C_7  and  N_8
REMARK    3  A    between atoms: N_8  and  C_9
REMARK    4  A    between atoms: C_9  and  C_10
REMARK    5  A    between atoms: C_14  and  C_15
REMARK                            x       y       z     vdW  Elec       q    Type
REMARK                         _______ _______ _______ _____ _____    ______ ____
ROOT
ATOM      1  C   UNL     1      44.424   6.526  11.811  0.00  0.00    +0.000 C 
ENDROOT
BRANCH   1   2
ATOM      2  C   UNL     1      44.342   5.137  11.237  0.00  0.00    +0.000 A 
ATOM      3  C   UNL     1      43.288   4.294  11.574  0.00  0.00    +0.000 A 
ATOM      4  N   UNL     1      43.136   3.045  11.091  0.00  0.00    +0.000 NA
ATOM      5  C   UNL     1      44.061   2.626  10.201  0.00  0.00    +0.000 A 
ATOM      6  C   UNL     1      45.145   3.389   9.763  0.00  0.00    +0.000 A 
ATOM      7  C   UNL     1      45.304   4.649  10.340  0.00  0.00    +0.000 A 
BRANCH   6   8
ATOM      8  C   UNL     1      46.001   2.865   8.638  0.00  0.00    +0.000 C 
ATOM      9  C   UNL     1      45.893   1.349   8.424  0.00  0.00    +0.000 C 
ATOM     10  C   UNL     1      46.993   0.907   7.458  0.00  0.00    +0.000 C 
ATOM     11  N   UNL     1      46.928   1.618   6.177  0.00  0.00    +0.000 NA
ATOM     12  C   UNL     1      46.908   3.076   6.338  0.00  0.00    +0.000 C 
ATOM     13  C   UNL     1      45.797   3.551   7.283  0.00  0.00    +0.000 C 
ATOM     14  H   UNL     1      46.089   1.326   5.677  0.00  0.00    +0.000 HD
ENDBRANCH   6   8
ENDBRANCH   1   2
BRANCH   1  15
ATOM     15  N   UNL     1      45.600   7.196  11.262  0.00  0.00    +0.000 N 
ATOM     16  H   UNL     1      45.359   8.092  10.845  0.00  0.00    +0.000 HD
BRANCH  15  20
ATOM     17  C   UNL     1      48.652   7.833  13.928  0.00  0.00    +0.000 A 
ATOM     18  C   UNL     1      48.786   6.896  12.916  0.00  0.00    +0.000 A 
ATOM     19  N   UNL     1      47.796   6.645  12.022  0.00  0.00    +0.000 NA
ATOM     20  C   UNL     1      46.657   7.356  12.167  0.00  0.00    +0.000 A 
ATOM     21  C   UNL     1      46.547   8.303  13.195  0.00  0.00    +0.000 A 
ATOM     22  N   UNL     1      47.520   8.563  14.102  0.00  0.00    +0.000 NA
BRANCH  17  24
ATOM     23  N   UNL     1      50.985   7.530  14.500  0.00  0.00    +0.000 N 
ATOM     24  C   UNL     1      49.781   8.074  14.865  0.00  0.00    +0.000 C 
ATOM     25  O   UNL     1      49.648   8.714  15.900  0.00  0.00    +0.000 OA
ATOM     26  H   UNL     1      51.781   7.647  15.102  0.00  0.00    +0.000 HD
ATOM     27  H   UNL     1      51.055   6.990  13.643  0.00  0.00    +0.000 HD
ENDBRANCH  17  24
ENDBRANCH  15  20
ENDBRANCH   1  15
TORSDOF 5
ENDMDL
