MODEL 1
REMARK VINA RESULT:    -7.914      0.000      0.000
REMARK INTER + INTRA:         -10.852
REMARK INTER:                 -10.228
REMARK INTRA:                  -0.624
REMARK UNBOUND:                -0.624
REMARK  Name = 
REMARK  6 active torsions:
REMARK  status: ('A' for Active; 'I' for Inactive)
REMARK    1  A    between atoms: C_1  and  S_2
REMARK    2  A    between atoms: S_2  and  C_5
REMARK    3  A    between atoms: C_8  and  O_9
REMARK    4  A    between atoms: O_9  and  C_10
REMARK    5  A    between atoms: C_10  and  C_11
REMARK    6  A    between atoms: C_15  and  C_16
REMARK                            x       y       z     vdW  Elec       q    Type
REMARK                         _______ _______ _______ _____ _____    ______ ____
ROOT
ATOM      1  C   UNL     1      46.315   7.380  12.349  0.00  0.00    +0.000 C 
ATOM      2  C   UNL     1      46.489   8.788  11.801  0.00  0.00    +0.000 C 
ATOM      3  C   UNL     1      45.739   8.578  13.074  0.00  0.00    +0.000 C 
ENDROOT
BRANCH   1   4
ATOM      4  C   UNL     1      45.359   6.391  11.697  0.00  0.00    +0.000 A 
ATOM      5  C   UNL     1      43.970   6.497  11.850  0.00  0.00    +0.000 A 
ATOM      6  C   UNL     1      43.103   5.672  11.134  0.00  0.00    +0.000 A 
ATOM      7  C   UNL     1      43.609   4.728  10.236  0.00  0.00    +0.000 A 
ATOM      8  C   UNL     1      44.989   4.580  10.039  0.00  0.00    +0.000 A 
ATOM      9  C   UNL     1      45.836   5.402  10.807  0.00  0.00    +0.000 A 
BRANCH   8  10
ATOM     10  C   UNL     1      45.530   3.675   9.003  0.00  0.00    +0.000 A 
ATOM     11  C   UNL     1      46.165   4.173   7.853  0.00  0.00    +0.000 A 
ATOM     12  C   UNL     1      46.719   3.309   6.910  0.00  0.00    +0.000 A 
ATOM     13  C   UNL     1      46.632   1.948   7.136  0.00  0.00    +0.000 A 
ATOM     14  N   UNL     1      46.030   1.413   8.217  0.00  0.00    +0.000 NA
ATOM     15  C   UNL     1      45.498   2.282   9.115  0.00  0.00    +0.000 A 
ENDBRANCH   8  10
ENDBRANCH   1   4
BRANCH   1  16
ATOM     16  O   UNL     1      47.615   6.875  12.743  0.00  0.00    +0.000 OA
BRANCH  16  20
ATOM     17  C   UNL     1      47.767   4.613  16.150  0.00  0.00    +0.000 A 
ATOM     18  C   UNL     1      46.978   4.196  15.083  0.00  0.00    +0.000 A 
ATOM     19  C   UNL     1      46.943   4.984  13.939  0.00  0.00    +0.000 A 
ATOM     20  C   UNL     1      47.701   6.147  13.913  0.00  0.00    +0.000 A 
ATOM     21  N   UNL     1      48.500   6.553  14.924  0.00  0.00    +0.000 NA
ATOM     22  C   UNL     1      48.516   5.771  16.031  0.00  0.00    +0.000 A 
BRANCH  17  24
ATOM     23  C   UNL     1      49.334   2.754  17.464  0.00  0.00    +0.000 C 
ATOM     24  S   UNL     1      47.830   3.683  17.638  0.00  0.00    +0.000 S 
ATOM     25  O   UNL     1      46.724   2.752  17.628  0.00  0.00    +0.000 OA
ATOM     26  O   UNL     1      48.009   4.620  18.734  0.00  0.00    +0.000 OA
ENDBRANCH  17  24
ENDBRANCH  16  20
ENDBRANCH   1  16
TORSDOF 5
ENDMDL
MODEL 2
REMARK VINA RESULT:    -6.666      2.216      3.095
REMARK INTER + INTRA:          -9.238
REMARK INTER:                  -8.324
REMARK INTRA:                  -0.914
REMARK UNBOUND:                -0.624
REMARK  Name = 
REMARK  6 active torsions:
REMARK  status: ('A' for Active; 'I' for Inactive)
REMARK    1  A    between atoms: C_1  and  S_2
REMARK    2  A    between atoms: S_2  and  C_5
REMARK    3  A    between atoms: C_8  and  O_9
REMARK    4  A    between atoms: O_9  and  C_10
REMARK    5  A    between atoms: C_10  and  C_11
REMARK    6  A    between atoms: C_15  and  C_16
REMARK                            x       y       z     vdW  Elec       q    Type
REMARK                         _______ _______ _______ _____ _____    ______ ____
ROOT
ATOM      1  C   UNL     1      48.905   7.768  12.614  0.00  0.00    +0.000 C 
ATOM      2  C   UNL     1      49.832   8.018  11.435  0.00  0.00    +0.000 C 
ATOM      3  C   UNL     1      49.463   9.148  12.338  0.00  0.00    +0.000 C 
ENDROOT
BRANCH   1   4
ATOM      4  C   UNL     1      47.415   7.528  12.410  0.00  0.00    +0.000 A 
ATOM      5  C   UNL     1      46.458   8.491  12.754  0.00  0.00    +0.000 A 
ATOM      6  C   UNL     1      45.112   8.316  12.431  0.00  0.00    +0.000 A 
ATOM      7  C   UNL     1      44.696   7.173  11.743  0.00  0.00    +0.000 A 
ATOM      8  C   UNL     1      45.610   6.177  11.370  0.00  0.00    +0.000 A 
ATOM      9  C   UNL     1      46.953   6.368  11.746  0.00  0.00    +0.000 A 
BRANCH   8  10
ATOM     10  C   UNL     1      45.203   5.028  10.534  0.00  0.00    +0.000 A 
ATOM     11  C   UNL     1      45.552   4.948   9.176  0.00  0.00    +0.000 A 
ATOM     12  C   UNL     1      45.210   3.834   8.412  0.00  0.00    +0.000 A 
ATOM     13  C   UNL     1      44.519   2.805   9.025  0.00  0.00    +0.000 A 
ATOM     14  N   UNL     1      44.152   2.828  10.323  0.00  0.00    +0.000 NA
ATOM     15  C   UNL     1      44.499   3.930  11.038  0.00  0.00    +0.000 A 
ENDBRANCH   8  10
ENDBRANCH   1   4
BRANCH   1  16
ATOM     16  O   UNL     1      49.585   6.909  13.562  0.00  0.00    +0.000 OA
BRANCH  16  20
ATOM     17  C   UNL     1      48.395   7.159  17.469  0.00  0.00    +0.000 A 
ATOM     18  C   UNL     1      48.789   8.311  16.796  0.00  0.00    +0.000 A 
ATOM     19  C   UNL     1      49.191   8.197  15.470  0.00  0.00    +0.000 A 
ATOM     20  C   UNL     1      49.174   6.940  14.879  0.00  0.00    +0.000 A 
ATOM     21  N   UNL     1      48.763   5.815  15.503  0.00  0.00    +0.000 NA
ATOM     22  C   UNL     1      48.379   5.949  16.796  0.00  0.00    +0.000 A 
BRANCH  17  24
ATOM     23  C   UNL     1      49.459   7.173  20.019  0.00  0.00    +0.000 C 
ATOM     24  S   UNL     1      47.908   7.226  19.155  0.00  0.00    +0.000 S 
ATOM     25  O   UNL     1      47.184   6.012  19.457  0.00  0.00    +0.000 OA
ATOM     26  O   UNL     1      47.313   8.531  19.388  0.00  0.00    +0.000 OA
ENDBRANCH  17  24
ENDBRANCH  16  20
ENDBRANCH   1  16
TORSDOF 5
ENDMDL
MODEL 3
REMARK VINA RESULT:    -6.610      3.467      6.678
REMARK INTER + INTRA:          -9.165
REMARK INTER:                  -8.330
REMARK INTRA:                  -0.835
REMARK UNBOUND:                -0.624
REMARK  Name = 
REMARK  6 active torsions:
REMARK  status: ('A' for Active; 'I' for Inactive)
REMARK    1  A    between atoms: C_1  and  S_2
REMARK    2  A    between atoms: S_2  and  C_5
REMARK    3  A    between atoms: C_8  and  O_9
REMARK    4  A    between atoms: O_9  and  C_10
REMARK    5  A    between atoms: C_10  and  C_11
REMARK    6  A    between atoms: C_15  and  C_16
REMARK                            x       y       z     vdW  Elec       q    Type
REMARK                         _______ _______ _______ _____ _____    ______ ____
ROOT
ATOM      1  C   UNL     1      49.106   7.872  13.917  0.00  0.00    +0.000 C 
ATOM      2  C   UNL     1      50.202   7.909  14.971  0.00  0.00    +0.000 C 
ATOM      3  C   UNL     1      48.775   8.051  15.384  0.00  0.00    +0.000 C 
ENDROOT
BRANCH   1   4
ATOM      4  C   UNL     1      48.882   9.042  12.969  0.00  0.00    +0.000 A 
ATOM      5  C   UNL     1      49.872   9.466  12.073  0.00  0.00    +0.000 A 
ATOM      6  C   UNL     1      49.604  10.444  11.115  0.00  0.00    +0.000 A 
ATOM      7  C   UNL     1      48.330  11.012  11.025  0.00  0.00    +0.000 A 
ATOM      8  C   UNL     1      47.299  10.623  11.893  0.00  0.00    +0.000 A 
ATOM      9  C   UNL     1      47.615   9.662  12.873  0.00  0.00    +0.000 A 
BRANCH   8  10
ATOM     10  C   UNL     1      45.918  11.122  11.726  0.00  0.00    +0.000 A 
ATOM     11  C   UNL     1      45.657  12.458  11.380  0.00  0.00    +0.000 A 
ATOM     12  C   UNL     1      44.353  12.904  11.173  0.00  0.00    +0.000 A 
ATOM     13  C   UNL     1      43.320  11.996  11.313  0.00  0.00    +0.000 A 
ATOM     14  N   UNL     1      43.509  10.704  11.648  0.00  0.00    +0.000 NA
ATOM     15  C   UNL     1      44.791  10.303  11.846  0.00  0.00    +0.000 A 
ENDBRANCH   8  10
ENDBRANCH   1   4
BRANCH   1  16
ATOM     16  O   UNL     1      49.065   6.542  13.343  0.00  0.00    +0.000 OA
BRANCH  16  20
ATOM     17  C   UNL     1      45.375   4.896  12.693  0.00  0.00    +0.000 A 
ATOM     18  C   UNL     1      45.801   5.960  11.904  0.00  0.00    +0.000 A 
ATOM     19  C   UNL     1      47.058   6.501  12.148  0.00  0.00    +0.000 A 
ATOM     20  C   UNL     1      47.831   5.951  13.162  0.00  0.00    +0.000 A 
ATOM     21  N   UNL     1      47.450   4.897  13.917  0.00  0.00    +0.000 NA
ATOM     22  C   UNL     1      46.220   4.387  13.664  0.00  0.00    +0.000 A 
BRANCH  17  24
ATOM     23  C   UNL     1      43.571   4.256  10.700  0.00  0.00    +0.000 C 
ATOM     24  S   UNL     1      43.785   4.186  12.461  0.00  0.00    +0.000 S 
ATOM     25  O   UNL     1      42.813   5.067  13.068  0.00  0.00    +0.000 OA
ATOM     26  O   UNL     1      43.870   2.787  12.844  0.00  0.00    +0.000 OA
ENDBRANCH  17  24
ENDBRANCH  16  20
ENDBRANCH   1  16
TORSDOF 5
ENDMDL
MODEL 4
REMARK VINA RESULT:    -6.510      3.337      6.950
REMARK INTER + INTRA:          -9.037
REMARK INTER:                  -8.073
REMARK INTRA:                  -0.964
REMARK UNBOUND:                -0.624
REMARK  Name = 
REMARK  6 active torsions:
REMARK  status: ('A' for Active; 'I' for Inactive)
REMARK    1  A    between atoms: C_1  and  S_2
REMARK    2  A    between atoms: S_2  and  C_5
REMARK    3  A    between atoms: C_8  and  O_9
REMARK    4  A    between atoms: O_9  and  C_10
REMARK    5  A    between atoms: C_10  and  C_11
REMARK    6  A    between atoms: C_15  and  C_16
REMARK                            x       y       z     vdW  Elec       q    Type
REMARK                         _______ _______ _______ _____ _____    ______ ____
ROOT
ATOM      1  C   UNL     1      48.617   8.312  12.581  0.00  0.00    +0.000 C 
ATOM      2  C   UNL     1      49.592   9.149  11.768  0.00  0.00    +0.000 C 
ATOM      3  C   UNL     1      49.675   7.660  11.715  0.00  0.00    +0.000 C 
ENDROOT
BRANCH   1   4
ATOM      4  C   UNL     1      48.742   8.202  14.095  0.00  0.00    +0.000 A 
ATOM      5  C   UNL     1      48.635   9.323  14.928  0.00  0.00    +0.000 A 
ATOM      6  C   UNL     1      48.609   9.188  16.316  0.00  0.00    +0.000 A 
ATOM      7  C   UNL     1      48.678   7.921  16.902  0.00  0.00    +0.000 A 
ATOM      8  C   UNL     1      48.782   6.763  16.118  0.00  0.00    +0.000 A 
ATOM      9  C   UNL     1      48.845   6.939  14.722  0.00  0.00    +0.000 A 
BRANCH   8  10
ATOM     10  C   UNL     1      48.729   5.414  16.720  0.00  0.00    +0.000 A 
ATOM     11  C   UNL     1      47.685   4.521  16.429  0.00  0.00    +0.000 A 
ATOM     12  C   UNL     1      47.675   3.233  16.959  0.00  0.00    +0.000 A 
ATOM     13  C   UNL     1      48.721   2.853  17.778  0.00  0.00    +0.000 A 
ATOM     14  N   UNL     1      49.747   3.668  18.098  0.00  0.00    +0.000 NA
ATOM     15  C   UNL     1      49.725   4.917  17.566  0.00  0.00    +0.000 A 
ENDBRANCH   8  10
ENDBRANCH   1   4
BRANCH   1  16
ATOM     16  O   UNL     1      47.285   8.503  12.043  0.00  0.00    +0.000 OA
BRANCH  16  20
ATOM     17  C   UNL     1      44.827   5.239  11.820  0.00  0.00    +0.000 A 
ATOM     18  C   UNL     1      45.768   5.460  10.820  0.00  0.00    +0.000 A 
ATOM     19  C   UNL     1      46.588   6.577  10.919  0.00  0.00    +0.000 A 
ATOM     20  C   UNL     1      46.435   7.416  12.015  0.00  0.00    +0.000 A 
ATOM     21  N   UNL     1      45.552   7.202  13.014  0.00  0.00    +0.000 NA
ATOM     22  C   UNL     1      44.759   6.108  12.895  0.00  0.00    +0.000 A 
BRANCH  17  24
ATOM     23  C   UNL     1      44.338   2.960  10.335  0.00  0.00    +0.000 C 
ATOM     24  S   UNL     1      43.736   3.865  11.739  0.00  0.00    +0.000 S 
ATOM     25  O   UNL     1      42.417   4.364  11.421  0.00  0.00    +0.000 OA
ATOM     26  O   UNL     1      43.964   3.053  12.923  0.00  0.00    +0.000 OA
ENDBRANCH  17  24
ENDBRANCH  16  20
ENDBRANCH   1  16
TORSDOF 5
ENDMDL
MODEL 5
REMARK VINA RESULT:    -6.175      4.805      6.856
REMARK INTER + INTRA:          -8.604
REMARK INTER:                  -7.771
REMARK INTRA:                  -0.833
REMARK UNBOUND:                -0.624
REMARK  Name = 
REMARK  6 active torsions:
REMARK  status: ('A' for Active; 'I' for Inactive)
REMARK    1  A    between atoms: C_1  and  S_2
REMARK    2  A    between atoms: S_2  and  C_5
REMARK    3  A    between atoms: C_8  and  O_9
REMARK    4  A    between atoms: O_9  and  C_10
REMARK    5  A    between atoms: C_10  and  C_11
REMARK    6  A    between atoms: C_15  and  C_16
REMARK                            x       y       z     vdW  Elec       q    Type
REMARK                         _______ _______ _______ _____ _____    ______ ____
ROOT
ATOM      1  C   UNL     1      48.729   7.869  13.613  0.00  0.00    +0.000 C 
ATOM      2  C   UNL     1      49.010   8.144  15.083  0.00  0.00    +0.000 C 
ATOM      3  C   UNL     1      47.743   8.638  14.467  0.00  0.00    +0.000 C 
ENDROOT
BRANCH   1   4
ATOM      4  C   UNL     1      49.478   8.612  12.514  0.00  0.00    +0.000 A 
ATOM      5  C   UNL     1      49.237   9.965  12.241  0.00  0.00    +0.000 A 
ATOM      6  C   UNL     1      50.028  10.666  11.331  0.00  0.00    +0.000 A 
ATOM      7  C   UNL     1      51.089  10.029  10.681  0.00  0.00    +0.000 A 
ATOM      8  C   UNL     1      51.379   8.678  10.919  0.00  0.00    +0.000 A 
ATOM      9  C   UNL     1      50.537   7.990  11.813  0.00  0.00    +0.000 A 
BRANCH   8  10
ATOM     10  C   UNL     1      52.572   8.029  10.335  0.00  0.00    +0.000 A 
ATOM     11  C   UNL     1      52.473   6.839   9.597  0.00  0.00    +0.000 A 
ATOM     12  C   UNL     1      53.597   6.265   9.006  0.00  0.00    +0.000 A 
ATOM     13  C   UNL     1      54.815   6.900   9.162  0.00  0.00    +0.000 A 
ATOM     14  N   UNL     1      54.972   8.042   9.863  0.00  0.00    +0.000 NA
ATOM     15  C   UNL     1      53.857   8.572  10.428  0.00  0.00    +0.000 A 
ENDBRANCH   8  10
ENDBRANCH   1   4
BRANCH   1  16
ATOM     16  O   UNL     1      48.547   6.443  13.436  0.00  0.00    +0.000 OA
BRANCH  16  20
ATOM     17  C   UNL     1      44.975   5.220  11.857  0.00  0.00    +0.000 A 
ATOM     18  C   UNL     1      45.768   6.118  11.150  0.00  0.00    +0.000 A 
ATOM     19  C   UNL     1      46.975   6.518  11.710  0.00  0.00    +0.000 A 
ATOM     20  C   UNL     1      47.336   5.999  12.947  0.00  0.00    +0.000 A 
ATOM     21  N   UNL     1      46.597   5.101  13.635  0.00  0.00    +0.000 NA
ATOM     22  C   UNL     1      45.422   4.727  13.072  0.00  0.00    +0.000 A 
BRANCH  17  24
ATOM     23  C   UNL     1      43.326   3.005  11.749  0.00  0.00    +0.000 C 
ATOM     24  S   UNL     1      43.423   4.699  11.223  0.00  0.00    +0.000 S 
ATOM     25  O   UNL     1      43.502   4.718   9.780  0.00  0.00    +0.000 OA
ATOM     26  O   UNL     1      42.390   5.443  11.926  0.00  0.00    +0.000 OA
ENDBRANCH  17  24
ENDBRANCH  16  20
ENDBRANCH   1  16
TORSDOF 5
ENDMDL
MODEL 6
REMARK VINA RESULT:    -5.792      3.315      5.476
REMARK INTER + INTRA:          -8.109
REMARK INTER:                  -8.326
REMARK INTRA:                   0.217
REMARK UNBOUND:                -0.624
REMARK  Name = 
REMARK  6 active torsions:
REMARK  status: ('A' for Active; 'I' for Inactive)
REMARK    1  A    between atoms: C_1  and  S_2
REMARK    2  A    between atoms: S_2  and  C_5
REMARK    3  A    between atoms: C_8  and  O_9
REMARK    4  A    between atoms: O_9  and  C_10
REMARK    5  A    between atoms: C_10  and  C_11
REMARK    6  A    between atoms: C_15  and  C_16
REMARK                            x       y       z     vdW  Elec       q    Type
REMARK                         _______ _______ _______ _____ _____    ______ ____
ROOT
ATOM      1  C   UNL     1      48.147   4.627  16.693  0.00  0.00    +0.000 C 
ATOM      2  C   UNL     1      47.083   4.475  17.770  0.00  0.00    +0.000 C 
ATOM      3  C   UNL     1      47.507   3.284  16.975  0.00  0.00    +0.000 C 
ENDROOT
BRANCH   1   4
ATOM      4  C   UNL     1      47.839   5.320  15.372  0.00  0.00    +0.000 A 
ATOM      5  C   UNL     1      48.617   6.385  14.899  0.00  0.00    +0.000 A 
ATOM      6  C   UNL     1      48.411   6.915  13.625  0.00  0.00    +0.000 A 
ATOM      7  C   UNL     1      47.426   6.380  12.790  0.00  0.00    +0.000 A 
ATOM      8  C   UNL     1      46.622   5.311  13.208  0.00  0.00    +0.000 A 
ATOM      9  C   UNL     1      46.830   4.826  14.514  0.00  0.00    +0.000 A 
BRANCH   8  10
ATOM     10  C   UNL     1      45.666   4.656  12.290  0.00  0.00    +0.000 A 
ATOM     11  C   UNL     1      44.799   3.643  12.733  0.00  0.00    +0.000 A 
ATOM     12  C   UNL     1      43.865   3.071  11.871  0.00  0.00    +0.000 A 
ATOM     13  C   UNL     1      43.810   3.528  10.568  0.00  0.00    +0.000 A 
ATOM     14  N   UNL     1      44.620   4.492  10.085  0.00  0.00    +0.000 NA
ATOM     15  C   UNL     1      45.520   5.026  10.950  0.00  0.00    +0.000 A 
ENDBRANCH   8  10
ENDBRANCH   1   4
BRANCH   1  16
ATOM     16  O   UNL     1      49.405   4.956  17.331  0.00  0.00    +0.000 OA
BRANCH  16  20
ATOM     17  C   UNL     1      52.309   2.106  17.761  0.00  0.00    +0.000 A 
ATOM     18  C   UNL     1      52.538   3.396  18.227  0.00  0.00    +0.000 A 
ATOM     19  C   UNL     1      51.536   4.345  18.066  0.00  0.00    +0.000 A 
ATOM     20  C   UNL     1      50.351   3.959  17.454  0.00  0.00    +0.000 A 
ATOM     21  N   UNL     1      50.095   2.704  17.025  0.00  0.00    +0.000 NA
ATOM     22  C   UNL     1      51.087   1.796  17.189  0.00  0.00    +0.000 A 
BRANCH  17  24
ATOM     23  C   UNL     1      54.629   1.524  19.146  0.00  0.00    +0.000 C 
ATOM     24  S   UNL     1      53.545   0.867  17.902  0.00  0.00    +0.000 S 
ATOM     25  O   UNL     1      54.272   0.820  16.653  0.00  0.00    +0.000 OA
ATOM     26  O   UNL     1      52.913  -0.324  18.445  0.00  0.00    +0.000 OA
ENDBRANCH  17  24
ENDBRANCH  16  20
ENDBRANCH   1  16
TORSDOF 5
ENDMDL
MODEL 7
REMARK VINA RESULT:    -5.664      4.062      7.233
REMARK INTER + INTRA:          -7.943
REMARK INTER:                  -6.780
REMARK INTRA:                  -1.163
REMARK UNBOUND:                -0.624
REMARK  Name = 
REMARK  6 active torsions:
REMARK  status: ('A' for Active; 'I' for Inactive)
REMARK    1  A    between atoms: C_1  and  S_2
REMARK    2  A    between atoms: S_2  and  C_5
REMARK    3  A    between atoms: C_8  and  O_9
REMARK    4  A    between atoms: O_9  and  C_10
REMARK    5  A    between atoms: C_10  and  C_11
REMARK    6  A    between atoms: C_15  and  C_16
REMARK                            x       y       z     vdW  Elec       q    Type
REMARK                         _______ _______ _______ _____ _____    ______ ____
ROOT
ATOM      1  C   UNL     1      49.416   9.341  13.827  0.00  0.00    +0.000 C 
ATOM      2  C   UNL     1      50.486  10.394  13.580  0.00  0.00    +0.000 C 
ATOM      3  C   UNL     1      50.701   8.995  13.104  0.00  0.00    +0.000 C 
ENDROOT
BRANCH   1   4
ATOM      4  C   UNL     1      49.182   8.764  15.217  0.00  0.00    +0.000 A 
ATOM      5  C   UNL     1      48.503   9.483  16.209  0.00  0.00    +0.000 A 
ATOM      6  C   UNL     1      48.173   8.890  17.428  0.00  0.00    +0.000 A 
ATOM      7  C   UNL     1      48.505   7.555  17.675  0.00  0.00    +0.000 A 
ATOM      8  C   UNL     1      49.181   6.786  16.717  0.00  0.00    +0.000 A 
ATOM      9  C   UNL     1      49.534   7.428  15.514  0.00  0.00    +0.000 A 
BRANCH   8  10
ATOM     10  C   UNL     1      49.426   5.342  16.916  0.00  0.00    +0.000 A 
ATOM     11  C   UNL     1      50.622   4.872  17.483  0.00  0.00    +0.000 A 
ATOM     12  C   UNL     1      50.818   3.512  17.716  0.00  0.00    +0.000 A 
ATOM     13  C   UNL     1      49.804   2.635  17.378  0.00  0.00    +0.000 A 
ATOM     14  N   UNL     1      48.638   3.028  16.826  0.00  0.00    +0.000 NA
ATOM     15  C   UNL     1      48.480   4.359  16.610  0.00  0.00    +0.000 A 
ENDBRANCH   8  10
ENDBRANCH   1   4
BRANCH   1  16
ATOM     16  O   UNL     1      48.242   9.686  13.052  0.00  0.00    +0.000 OA
BRANCH  16  20
ATOM     17  C   UNL     1      45.635   6.734  11.939  0.00  0.00    +0.000 A 
ATOM     18  C   UNL     1      45.158   7.855  12.609  0.00  0.00    +0.000 A 
ATOM     19  C   UNL     1      46.065   8.841  12.978  0.00  0.00    +0.000 A 
ATOM     20  C   UNL     1      47.404   8.664  12.654  0.00  0.00    +0.000 A 
ATOM     21  N   UNL     1      47.883   7.600  11.974  0.00  0.00    +0.000 NA
ATOM     22  C   UNL     1      46.982   6.648  11.628  0.00  0.00    +0.000 A 
BRANCH  17  24
ATOM     23  C   UNL     1      44.597   4.353  12.883  0.00  0.00    +0.000 C 
ATOM     24  S   UNL     1      44.549   5.434  11.475  0.00  0.00    +0.000 S 
ATOM     25  O   UNL     1      45.141   4.739  10.354  0.00  0.00    +0.000 OA
ATOM     26  O   UNL     1      43.210   5.992  11.387  0.00  0.00    +0.000 OA
ENDBRANCH  17  24
ENDBRANCH  16  20
ENDBRANCH   1  16
TORSDOF 5
ENDMDL
MODEL 8
REMARK VINA RESULT:    -5.524      2.983      4.810
REMARK INTER + INTRA:          -7.762
REMARK INTER:                  -6.636
REMARK INTRA:                  -1.126
REMARK UNBOUND:                -0.624
REMARK  Name = 
REMARK  6 active torsions:
REMARK  status: ('A' for Active; 'I' for Inactive)
REMARK    1  A    between atoms: C_1  and  S_2
REMARK    2  A    between atoms: S_2  and  C_5
REMARK    3  A    between atoms: C_8  and  O_9
REMARK    4  A    between atoms: O_9  and  C_10
REMARK    5  A    between atoms: C_10  and  C_11
REMARK    6  A    between atoms: C_15  and  C_16
REMARK                            x       y       z     vdW  Elec       q    Type
REMARK                         _______ _______ _______ _____ _____    ______ ____
ROOT
ATOM      1  C   UNL     1      49.832   9.595  15.271  0.00  0.00    +0.000 C 
ATOM      2  C   UNL     1      50.216  11.066  15.294  0.00  0.00    +0.000 C 
ATOM      3  C   UNL     1      48.859  10.649  15.755  0.00  0.00    +0.000 C 
ENDROOT
BRANCH   1   4
ATOM      4  C   UNL     1      49.538   8.876  13.960  0.00  0.00    +0.000 A 
ATOM      5  C   UNL     1      50.446   8.888  12.893  0.00  0.00    +0.000 A 
ATOM      6  C   UNL     1      50.228   8.110  11.755  0.00  0.00    +0.000 A 
ATOM      7  C   UNL     1      49.099   7.292  11.667  0.00  0.00    +0.000 A 
ATOM      8  C   UNL     1      48.159   7.236  12.706  0.00  0.00    +0.000 A 
ATOM      9  C   UNL     1      48.390   8.063  13.823  0.00  0.00    +0.000 A 
BRANCH   8  10
ATOM     10  C   UNL     1      47.030   6.282  12.679  0.00  0.00    +0.000 A 
ATOM     11  C   UNL     1      46.145   6.224  11.591  0.00  0.00    +0.000 A 
ATOM     12  C   UNL     1      45.117   5.283  11.552  0.00  0.00    +0.000 A 
ATOM     13  C   UNL     1      44.992   4.405  12.612  0.00  0.00    +0.000 A 
ATOM     14  N   UNL     1      45.808   4.417  13.686  0.00  0.00    +0.000 NA
ATOM     15  C   UNL     1      46.797   5.348  13.693  0.00  0.00    +0.000 A 
ENDBRANCH   8  10
ENDBRANCH   1   4
BRANCH   1  16
ATOM     16  O   UNL     1      50.646   8.890  16.239  0.00  0.00    +0.000 OA
BRANCH  16  20
ATOM     17  C   UNL     1      49.407   5.237  17.607  0.00  0.00    +0.000 A 
ATOM     18  C   UNL     1      50.639   5.351  16.972  0.00  0.00    +0.000 A 
ATOM     19  C   UNL     1      51.034   6.603  16.515  0.00  0.00    +0.000 A 
ATOM     20  C   UNL     1      50.184   7.681  16.719  0.00  0.00    +0.000 A 
ATOM     21  N   UNL     1      48.999   7.599  17.364  0.00  0.00    +0.000 NA
ATOM     22  C   UNL     1      48.632   6.369  17.797  0.00  0.00    +0.000 A 
BRANCH  17  24
ATOM     23  C   UNL     1      47.293   3.482  17.312  0.00  0.00    +0.000 C 
ATOM     24  S   UNL     1      48.831   3.680  18.178  0.00  0.00    +0.000 S 
ATOM     25  O   UNL     1      48.539   3.803  19.588  0.00  0.00    +0.000 OA
ATOM     26  O   UNL     1      49.751   2.666  17.689  0.00  0.00    +0.000 OA
ENDBRANCH  17  24
ENDBRANCH  16  20
ENDBRANCH   1  16
TORSDOF 5
ENDMDL
MODEL 9
REMARK VINA RESULT:    -5.520      4.055      6.965
REMARK INTER + INTRA:          -7.757
REMARK INTER:                  -6.912
REMARK INTRA:                  -0.845
REMARK UNBOUND:                -0.624
REMARK  Name = 
REMARK  6 active torsions:
REMARK  status: ('A' for Active; 'I' for Inactive)
REMARK    1  A    between atoms: C_1  and  S_2
REMARK    2  A    between atoms: S_2  and  C_5
REMARK    3  A    between atoms: C_8  and  O_9
REMARK    4  A    between atoms: O_9  and  C_10
REMARK    5  A    between atoms: C_10  and  C_11
REMARK    6  A    between atoms: C_15  and  C_16
REMARK                            x       y       z     vdW  Elec       q    Type
REMARK                         _______ _______ _______ _____ _____    ______ ____
ROOT
ATOM      1  C   UNL     1      49.072   7.938  14.036  0.00  0.00    +0.000 C 
ATOM      2  C   UNL     1      49.285   8.119  15.531  0.00  0.00    +0.000 C 
ATOM      3  C   UNL     1      48.028   8.617  14.898  0.00  0.00    +0.000 C 
ENDROOT
BRANCH   1   4
ATOM      4  C   UNL     1      49.838   8.777  13.022  0.00  0.00    +0.000 A 
ATOM      5  C   UNL     1      51.201   8.569  12.772  0.00  0.00    +0.000 A 
ATOM      6  C   UNL     1      51.855   9.246  11.743  0.00  0.00    +0.000 A 
ATOM      7  C   UNL     1      51.153  10.139  10.929  0.00  0.00    +0.000 A 
ATOM      8  C   UNL     1      49.787  10.383  11.129  0.00  0.00    +0.000 A 
ATOM      9  C   UNL     1      49.167   9.713  12.202  0.00  0.00    +0.000 A 
BRANCH   8  10
ATOM     10  C   UNL     1      49.007  11.227  10.199  0.00  0.00    +0.000 A 
ATOM     11  C   UNL     1      47.672  11.571  10.465  0.00  0.00    +0.000 A 
ATOM     12  C   UNL     1      46.964  12.412   9.608  0.00  0.00    +0.000 A 
ATOM     13  C   UNL     1      47.611  12.903   8.489  0.00  0.00    +0.000 A 
ATOM     14  N   UNL     1      48.888  12.602   8.179  0.00  0.00    +0.000 NA
ATOM     15  C   UNL     1      49.548  11.778   9.034  0.00  0.00    +0.000 A 
ENDBRANCH   8  10
ENDBRANCH   1   4
BRANCH   1  16
ATOM     16  O   UNL     1      48.943   6.523  13.756  0.00  0.00    +0.000 OA
BRANCH  16  20
ATOM     17  C   UNL     1      45.252   4.988  12.881  0.00  0.00    +0.000 A 
ATOM     18  C   UNL     1      45.937   4.533  14.003  0.00  0.00    +0.000 A 
ATOM     19  C   UNL     1      47.190   5.070  14.275  0.00  0.00    +0.000 A 
ATOM     20  C   UNL     1      47.696   6.038  13.419  0.00  0.00    +0.000 A 
ATOM     21  N   UNL     1      47.034   6.518  12.343  0.00  0.00    +0.000 NA
ATOM     22  C   UNL     1      45.816   5.978  12.094  0.00  0.00    +0.000 A 
BRANCH  17  24
ATOM     23  C   UNL     1      43.609   4.562  10.700  0.00  0.00    +0.000 C 
ATOM     24  S   UNL     1      43.681   4.327  12.459  0.00  0.00    +0.000 S 
ATOM     25  O   UNL     1      42.669   5.164  13.065  0.00  0.00    +0.000 OA
ATOM     26  O   UNL     1      43.722   2.898  12.715  0.00  0.00    +0.000 OA
ENDBRANCH  17  24
ENDBRANCH  16  20
ENDBRANCH   1  16
TORSDOF 5
ENDMDL
