MODEL 1
REMARK VINA RESULT:    -7.933      0.000      0.000
REMARK INTER + INTRA:         -11.637
REMARK INTER:                 -11.179
REMARK INTRA:                  -0.458
REMARK UNBOUND:                -0.458
REMARK  Name = 
REMARK  8 active torsions:
REMARK  status: ('A' for Active; 'I' for Inactive)
REMARK    1  A    between atoms: C_1  and  O_2
REMARK    2  A    between atoms: O_2  and  C_3
REMARK    3  A    between atoms: C_7  and  C_8
REMARK    4  A    between atoms: N_10  and  C_11
REMARK    5  A    between atoms: C_11  and  C_12
REMARK    6  A    between atoms: C_15  and  C_16
REMARK    7  A    between atoms: C_16  and  N_17
REMARK    8  A    between atoms: C_18  and  C_20
REMARK                            x       y       z     vdW  Elec       q    Type
REMARK                         _______ _______ _______ _____ _____    ______ ____
ROOT
ATOM      1  C   UNL     1      44.624   5.508  11.460  0.00  0.00    +0.000 A 
ATOM      2  C   UNL     1      44.480   6.902  11.416  0.00  0.00    +0.000 A 
ATOM      3  C   UNL     1      45.371   7.739  12.098  0.00  0.00    +0.000 A 
ATOM      4  C   UNL     1      46.441   7.202  12.827  0.00  0.00    +0.000 A 
ATOM      5  C   UNL     1      46.583   5.808  12.872  0.00  0.00    +0.000 A 
ATOM      6  C   UNL     1      45.695   4.971  12.187  0.00  0.00    +0.000 A 
ENDROOT
BRANCH   1   7
ATOM      7  C   UNL     1      43.660   4.609  10.727  0.00  0.00    +0.000 C 
BRANCH   7  10
ATOM      8  C   UNL     1      45.205   4.263   8.847  0.00  0.00    +0.000 C 
ATOM      9  O   UNL     1      45.410   5.467   8.706  0.00  0.00    +0.000 OA
ATOM     10  N   UNL     1      44.341   3.743   9.788  0.00  0.00    +0.000 N 
ATOM     11  H   UNL     1      44.368   2.755   9.996  0.00  0.00    +0.000 HD
BRANCH   8  16
ATOM     12  C   UNL     1      46.636   0.967   7.658  0.00  0.00    +0.000 A 
ATOM     13  C   UNL     1      47.229   1.339   6.451  0.00  0.00    +0.000 A 
ATOM     14  C   UNL     1      47.203   2.675   6.037  0.00  0.00    +0.000 A 
ATOM     15  C   UNL     1      46.567   3.642   6.816  0.00  0.00    +0.000 A 
ATOM     16  C   UNL     1      45.951   3.273   8.015  0.00  0.00    +0.000 A 
ATOM     17  C   UNL     1      46.016   1.941   8.447  0.00  0.00    +0.000 A 
BRANCH  12  19
ATOM     18  C   UNL     1      46.634  -1.378   7.227  0.00  0.00    +0.000 C 
ATOM     19  O   UNL     1      46.576  -0.304   8.161  0.00  0.00    +0.000 OA
ENDBRANCH  12  19
ENDBRANCH   8  16
ENDBRANCH   7  10
ENDBRANCH   1   7
BRANCH   4  20
ATOM     20  C   UNL     1      47.422   8.086  13.562  0.00  0.00    +0.000 C 
BRANCH  20  21
ATOM     21  N   UNL     1      47.721   7.585  14.881  0.00  0.00    +0.000 N 
ATOM     22  C   UNL     1      48.938   7.019  15.174  0.00  0.00    +0.000 C 
ATOM     23  O   UNL     1      49.840   6.936  14.344  0.00  0.00    +0.000 OA
ATOM     24  H   UNL     1      46.929   7.372  15.479  0.00  0.00    +0.000 HD
BRANCH  22  25
ATOM     25  C   UNL     1      49.130   6.573  16.561  0.00  0.00    +0.000 A 
ATOM     26  C   UNL     1      49.744   7.410  17.484  0.00  0.00    +0.000 A 
ATOM     27  S   UNL     1      49.843   6.741  19.051  0.00  0.00    +0.000 S 
ATOM     28  C   UNL     1      49.117   5.290  18.538  0.00  0.00    +0.000 A 
ATOM     29  N   UNL     1      48.932   4.254  19.400  0.00  0.00    +0.000 NA
ATOM     30  C   UNL     1      48.401   3.204  18.866  0.00  0.00    +0.000 A 
ATOM     31  N   UNL     1      48.029   3.100  17.550  0.00  0.00    +0.000 N 
ATOM     32  C   UNL     1      48.153   4.136  16.657  0.00  0.00    +0.000 A 
ATOM     33  O   UNL     1      47.741   4.037  15.505  0.00  0.00    +0.000 OA
ATOM     34  C   UNL     1      48.776   5.329  17.198  0.00  0.00    +0.000 A 
ATOM     35  H   UNL     1      47.597   2.258  17.198  0.00  0.00    +0.000 HD
ENDBRANCH  22  25
ENDBRANCH  20  21
ENDBRANCH   4  20
TORSDOF 7
ENDMDL
MODEL 2
REMARK VINA RESULT:    -7.641      4.260      7.344
REMARK INTER + INTRA:         -11.227
REMARK INTER:                 -10.139
REMARK INTRA:                  -1.088
REMARK UNBOUND:                -0.458
REMARK  Name = 
REMARK  8 active torsions:
REMARK  status: ('A' for Active; 'I' for Inactive)
REMARK    1  A    between atoms: C_1  and  O_2
REMARK    2  A    between atoms: O_2  and  C_3
REMARK    3  A    between atoms: C_7  and  C_8
REMARK    4  A    between atoms: N_10  and  C_11
REMARK    5  A    between atoms: C_11  and  C_12
REMARK    6  A    between atoms: C_15  and  C_16
REMARK    7  A    between atoms: C_16  and  N_17
REMARK    8  A    between atoms: C_18  and  C_20
REMARK                            x       y       z     vdW  Elec       q    Type
REMARK                         _______ _______ _______ _____ _____    ______ ____
ROOT
ATOM      1  C   UNL     1      44.947   9.042  11.860  0.00  0.00    +0.000 A 
ATOM      2  C   UNL     1      44.335   7.887  11.351  0.00  0.00    +0.000 A 
ATOM      3  C   UNL     1      44.737   6.614  11.774  0.00  0.00    +0.000 A 
ATOM      4  C   UNL     1      45.748   6.466  12.733  0.00  0.00    +0.000 A 
ATOM      5  C   UNL     1      46.360   7.621  13.241  0.00  0.00    +0.000 A 
ATOM      6  C   UNL     1      45.957   8.893  12.820  0.00  0.00    +0.000 A 
ENDROOT
BRANCH   1   7
ATOM      7  C   UNL     1      44.515  10.411  11.399  0.00  0.00    +0.000 C 
BRANCH   7  10
ATOM      8  C   UNL     1      42.125  10.734  10.924  0.00  0.00    +0.000 C 
ATOM      9  O   UNL     1      42.269  10.541   9.719  0.00  0.00    +0.000 OA
ATOM     10  N   UNL     1      43.167  10.721  11.827  0.00  0.00    +0.000 N 
ATOM     11  H   UNL     1      42.968  10.679  12.817  0.00  0.00    +0.000 HD
BRANCH   8  16
ATOM     12  C   UNL     1      38.407  10.323  11.503  0.00  0.00    +0.000 A 
ATOM     13  C   UNL     1      38.196  11.182  12.583  0.00  0.00    +0.000 A 
ATOM     14  C   UNL     1      39.256  11.931  13.104  0.00  0.00    +0.000 A 
ATOM     15  C   UNL     1      40.536  11.813  12.561  0.00  0.00    +0.000 A 
ATOM     16  C   UNL     1      40.760  10.938  11.493  0.00  0.00    +0.000 A 
ATOM     17  C   UNL     1      39.686  10.222  10.948  0.00  0.00    +0.000 A 
BRANCH  12  19
ATOM     18  C   UNL     1      36.302   9.221  11.688  0.00  0.00    +0.000 C 
ATOM     19  O   UNL     1      37.461   9.525  10.920  0.00  0.00    +0.000 OA
ENDBRANCH  12  19
ENDBRANCH   8  16
ENDBRANCH   7  10
ENDBRANCH   1   7
BRANCH   4  20
ATOM     20  C   UNL     1      46.190   5.103  13.214  0.00  0.00    +0.000 C 
BRANCH  20  21
ATOM     21  N   UNL     1      46.757   5.153  14.540  0.00  0.00    +0.000 N 
ATOM     22  C   UNL     1      47.362   4.056  15.103  0.00  0.00    +0.000 C 
ATOM     23  O   UNL     1      47.475   2.989  14.504  0.00  0.00    +0.000 OA
ATOM     24  H   UNL     1      46.427   5.894  15.150  0.00  0.00    +0.000 HD
BRANCH  22  25
ATOM     25  C   UNL     1      47.926   4.243  16.447  0.00  0.00    +0.000 A 
ATOM     26  C   UNL     1      47.583   3.373  17.474  0.00  0.00    +0.000 A 
ATOM     27  S   UNL     1      48.367   3.719  18.951  0.00  0.00    +0.000 S 
ATOM     28  C   UNL     1      49.150   5.073  18.282  0.00  0.00    +0.000 A 
ATOM     29  N   UNL     1      49.964   5.858  19.038  0.00  0.00    +0.000 NA
ATOM     30  C   UNL     1      50.464   6.870  18.409  0.00  0.00    +0.000 A 
ATOM     31  N   UNL     1      50.232   7.162  17.089  0.00  0.00    +0.000 N 
ATOM     32  C   UNL     1      49.456   6.372  16.277  0.00  0.00    +0.000 A 
ATOM     33  O   UNL     1      49.328   6.619  15.082  0.00  0.00    +0.000 OA
ATOM     34  C   UNL     1      48.842   5.240  16.943  0.00  0.00    +0.000 A 
ATOM     35  H   UNL     1      50.671   7.957  16.649  0.00  0.00    +0.000 HD
ENDBRANCH  22  25
ENDBRANCH  20  21
ENDBRANCH   4  20
TORSDOF 7
ENDMDL
MODEL 3
REMARK VINA RESULT:    -7.528      1.489      2.044
REMARK INTER + INTRA:         -11.067
REMARK INTER:                  -9.999
REMARK INTRA:                  -1.068
REMARK UNBOUND:                -0.458
REMARK  Name = 
REMARK  8 active torsions:
REMARK  status: ('A' for Active; 'I' for Inactive)
REMARK    1  A    between atoms: C_1  and  O_2
REMARK    2  A    between atoms: O_2  and  C_3
REMARK    3  A    between atoms: C_7  and  C_8
REMARK    4  A    between atoms: N_10  and  C_11
REMARK    5  A    between atoms: C_11  and  C_12
REMARK    6  A    between atoms: C_15  and  C_16
REMARK    7  A    between atoms: C_16  and  N_17
REMARK    8  A    between atoms: C_18  and  C_20
REMARK                            x       y       z     vdW  Elec       q    Type
REMARK                         _______ _______ _______ _____ _____    ______ ____
ROOT
ATOM      1  C   UNL     1      45.426   5.993  11.600  0.00  0.00    +0.000 A 
ATOM      2  C   UNL     1      45.847   7.330  11.545  0.00  0.00    +0.000 A 
ATOM      3  C   UNL     1      46.886   7.791  12.363  0.00  0.00    +0.000 A 
ATOM      4  C   UNL     1      47.543   6.920  13.244  0.00  0.00    +0.000 A 
ATOM      5  C   UNL     1      47.120   5.584  13.300  0.00  0.00    +0.000 A 
ATOM      6  C   UNL     1      46.084   5.122  12.480  0.00  0.00    +0.000 A 
ENDROOT
BRANCH   1   7
ATOM      7  C   UNL     1      44.304   5.501  10.721  0.00  0.00    +0.000 C 
BRANCH   7  10
ATOM      8  C   UNL     1      45.463   4.280   8.929  0.00  0.00    +0.000 C 
ATOM      9  O   UNL     1      45.890   5.311   8.412  0.00  0.00    +0.000 OA
ATOM     10  N   UNL     1      44.653   4.269  10.045  0.00  0.00    +0.000 N 
ATOM     11  H   UNL     1      44.504   3.403  10.543  0.00  0.00    +0.000 HD
BRANCH   8  16
ATOM     12  C   UNL     1      47.285   1.662   6.891  0.00  0.00    +0.000 A 
ATOM     13  C   UNL     1      46.749   0.483   7.410  0.00  0.00    +0.000 A 
ATOM     14  C   UNL     1      45.760   0.533   8.398  0.00  0.00    +0.000 A 
ATOM     15  C   UNL     1      45.316   1.762   8.888  0.00  0.00    +0.000 A 
ATOM     16  C   UNL     1      45.864   2.948   8.389  0.00  0.00    +0.000 A 
ATOM     17  C   UNL     1      46.823   2.893   7.369  0.00  0.00    +0.000 A 
BRANCH  12  19
ATOM     18  C   UNL     1      48.084   2.693   4.896  0.00  0.00    +0.000 C 
ATOM     19  O   UNL     1      48.267   1.745   5.942  0.00  0.00    +0.000 OA
ENDBRANCH  12  19
ENDBRANCH   8  16
ENDBRANCH   7  10
ENDBRANCH   1   7
BRANCH   4  20
ATOM     20  C   UNL     1      48.674   7.392  14.128  0.00  0.00    +0.000 C 
BRANCH  20  21
ATOM     21  N   UNL     1      48.419   7.126  15.523  0.00  0.00    +0.000 N 
ATOM     22  C   UNL     1      49.007   7.873  16.514  0.00  0.00    +0.000 C 
ATOM     23  O   UNL     1      49.753   8.818  16.269  0.00  0.00    +0.000 OA
ATOM     24  H   UNL     1      48.064   6.203  15.755  0.00  0.00    +0.000 HD
BRANCH  22  25
ATOM     25  C   UNL     1      48.645   7.522  17.894  0.00  0.00    +0.000 A 
ATOM     26  C   UNL     1      48.068   8.473  18.726  0.00  0.00    +0.000 A 
ATOM     27  S   UNL     1      47.677   7.875  20.277  0.00  0.00    +0.000 S 
ATOM     28  C   UNL     1      48.313   6.341  19.906  0.00  0.00    +0.000 A 
ATOM     29  N   UNL     1      48.325   5.343  20.831  0.00  0.00    +0.000 NA
ATOM     30  C   UNL     1      48.868   4.244  20.424  0.00  0.00    +0.000 A 
ATOM     31  N   UNL     1      49.391   4.048  19.171  0.00  0.00    +0.000 N 
ATOM     32  C   UNL     1      49.357   5.011  18.191  0.00  0.00    +0.000 A 
ATOM     33  O   UNL     1      49.765   4.780  17.057  0.00  0.00    +0.000 OA
ATOM     34  C   UNL     1      48.788   6.278  18.608  0.00  0.00    +0.000 A 
ATOM     35  H   UNL     1      49.782   3.157  18.906  0.00  0.00    +0.000 HD
ENDBRANCH  22  25
ENDBRANCH  20  21
ENDBRANCH   4  20
TORSDOF 7
ENDMDL
MODEL 4
REMARK VINA RESULT:    -7.384      1.930      2.719
REMARK INTER + INTRA:         -10.864
REMARK INTER:                  -9.792
REMARK INTRA:                  -1.071
REMARK UNBOUND:                -0.458
REMARK  Name = 
REMARK  8 active torsions:
REMARK  status: ('A' for Active; 'I' for Inactive)
REMARK    1  A    between atoms: C_1  and  O_2
REMARK    2  A    between atoms: O_2  and  C_3
REMARK    3  A    between atoms: C_7  and  C_8
REMARK    4  A    between atoms: N_10  and  C_11
REMARK    5  A    between atoms: C_11  and  C_12
REMARK    6  A    between atoms: C_15  and  C_16
REMARK    7  A    between atoms: C_16  and  N_17
REMARK    8  A    between atoms: C_18  and  C_20
REMARK                            x       y       z     vdW  Elec       q    Type
REMARK                         _______ _______ _______ _____ _____    ______ ____
ROOT
ATOM      1  C   UNL     1      45.895   7.369  12.140  0.00  0.00    +0.000 A 
ATOM      2  C   UNL     1      46.966   6.527  12.477  0.00  0.00    +0.000 A 
ATOM      3  C   UNL     1      47.900   6.906  13.450  0.00  0.00    +0.000 A 
ATOM      4  C   UNL     1      47.774   8.128  14.124  0.00  0.00    +0.000 A 
ATOM      5  C   UNL     1      46.704   8.969  13.786  0.00  0.00    +0.000 A 
ATOM      6  C   UNL     1      45.769   8.589  12.816  0.00  0.00    +0.000 A 
ENDROOT
BRANCH   1   7
ATOM      7  C   UNL     1      44.894   6.960  11.089  0.00  0.00    +0.000 C 
BRANCH   7  10
ATOM      8  C   UNL     1      44.438   4.801  10.005  0.00  0.00    +0.000 C 
ATOM      9  O   UNL     1      43.252   4.814  10.328  0.00  0.00    +0.000 OA
ATOM     10  N   UNL     1      45.332   5.791  10.356  0.00  0.00    +0.000 N 
ATOM     11  H   UNL     1      46.231   5.836   9.896  0.00  0.00    +0.000 HD
BRANCH   8  16
ATOM     12  C   UNL     1      46.225   3.054   7.163  0.00  0.00    +0.000 A 
ATOM     13  C   UNL     1      46.093   1.714   7.532  0.00  0.00    +0.000 A 
ATOM     14  C   UNL     1      45.386   1.369   8.688  0.00  0.00    +0.000 A 
ATOM     15  C   UNL     1      44.823   2.361   9.492  0.00  0.00    +0.000 A 
ATOM     16  C   UNL     1      44.969   3.707   9.141  0.00  0.00    +0.000 A 
ATOM     17  C   UNL     1      45.643   4.045   7.959  0.00  0.00    +0.000 A 
BRANCH  12  19
ATOM     18  C   UNL     1      47.622   2.564   5.294  0.00  0.00    +0.000 C 
ATOM     19  O   UNL     1      46.908   3.519   6.073  0.00  0.00    +0.000 OA
ENDBRANCH  12  19
ENDBRANCH   8  16
ENDBRANCH   7  10
ENDBRANCH   1   7
BRANCH   4  20
ATOM     20  C   UNL     1      48.762   8.552  15.186  0.00  0.00    +0.000 C 
BRANCH  20  21
ATOM     21  N   UNL     1      49.582   7.453  15.633  0.00  0.00    +0.000 N 
ATOM     22  C   UNL     1      49.956   7.327  16.949  0.00  0.00    +0.000 C 
ATOM     23  O   UNL     1      49.593   8.121  17.813  0.00  0.00    +0.000 OA
ATOM     24  H   UNL     1      50.125   6.971  14.924  0.00  0.00    +0.000 HD
BRANCH  22  25
ATOM     25  C   UNL     1      50.768   6.149  17.284  0.00  0.00    +0.000 A 
ATOM     26  C   UNL     1      52.096   6.301  17.659  0.00  0.00    +0.000 A 
ATOM     27  S   UNL     1      52.868   4.830  18.051  0.00  0.00    +0.000 S 
ATOM     28  C   UNL     1      51.469   3.934  17.683  0.00  0.00    +0.000 A 
ATOM     29  N   UNL     1      51.460   2.577  17.774  0.00  0.00    +0.000 NA
ATOM     30  C   UNL     1      50.342   2.027  17.432  0.00  0.00    +0.000 A 
ATOM     31  N   UNL     1      49.229   2.712  17.016  0.00  0.00    +0.000 N 
ATOM     32  C   UNL     1      49.178   4.083  16.955  0.00  0.00    +0.000 A 
ATOM     33  O   UNL     1      48.144   4.669  16.651  0.00  0.00    +0.000 OA
ATOM     34  C   UNL     1      50.420   4.749  17.296  0.00  0.00    +0.000 A 
ATOM     35  H   UNL     1      48.377   2.224  16.783  0.00  0.00    +0.000 HD
ENDBRANCH  22  25
ENDBRANCH  20  21
ENDBRANCH   4  20
TORSDOF 7
ENDMDL
MODEL 5
REMARK VINA RESULT:    -7.343      2.616      4.268
REMARK INTER + INTRA:         -10.807
REMARK INTER:                  -9.820
REMARK INTRA:                  -0.987
REMARK UNBOUND:                -0.458
REMARK  Name = 
REMARK  8 active torsions:
REMARK  status: ('A' for Active; 'I' for Inactive)
REMARK    1  A    between atoms: C_1  and  O_2
REMARK    2  A    between atoms: O_2  and  C_3
REMARK    3  A    between atoms: C_7  and  C_8
REMARK    4  A    between atoms: N_10  and  C_11
REMARK    5  A    between atoms: C_11  and  C_12
REMARK    6  A    between atoms: C_15  and  C_16
REMARK    7  A    between atoms: C_16  and  N_17
REMARK    8  A    between atoms: C_18  and  C_20
REMARK                            x       y       z     vdW  Elec       q    Type
REMARK                         _______ _______ _______ _____ _____    ______ ____
ROOT
ATOM      1  C   UNL     1      48.053   7.896  13.540  0.00  0.00    +0.000 A 
ATOM      2  C   UNL     1      47.999   9.030  14.364  0.00  0.00    +0.000 A 
ATOM      3  C   UNL     1      48.334   8.951  15.721  0.00  0.00    +0.000 A 
ATOM      4  C   UNL     1      48.750   7.736  16.285  0.00  0.00    +0.000 A 
ATOM      5  C   UNL     1      48.802   6.603  15.461  0.00  0.00    +0.000 A 
ATOM      6  C   UNL     1      48.471   6.683  14.104  0.00  0.00    +0.000 A 
ENDROOT
BRANCH   1   7
ATOM      7  C   UNL     1      47.688   7.985  12.080  0.00  0.00    +0.000 C 
BRANCH   7  10
ATOM      8  C   UNL     1      45.767   6.640  11.344  0.00  0.00    +0.000 C 
ATOM      9  O   UNL     1      44.964   7.544  11.564  0.00  0.00    +0.000 OA
ATOM     10  N   UNL     1      47.119   6.746  11.592  0.00  0.00    +0.000 N 
ATOM     11  H   UNL     1      47.752   6.061  11.205  0.00  0.00    +0.000 HD
BRANCH   8  16
ATOM     12  C   UNL     1      45.195   3.941   8.752  0.00  0.00    +0.000 A 
ATOM     13  C   UNL     1      44.580   2.947   9.515  0.00  0.00    +0.000 A 
ATOM     14  C   UNL     1      44.310   3.166  10.870  0.00  0.00    +0.000 A 
ATOM     15  C   UNL     1      44.671   4.370  11.475  0.00  0.00    +0.000 A 
ATOM     16  C   UNL     1      45.307   5.363  10.722  0.00  0.00    +0.000 A 
ATOM     17  C   UNL     1      45.537   5.156   9.356  0.00  0.00    +0.000 A 
BRANCH  12  19
ATOM     18  C   UNL     1      46.881   3.517   7.122  0.00  0.00    +0.000 C 
ATOM     19  O   UNL     1      45.529   3.841   7.430  0.00  0.00    +0.000 OA
ENDBRANCH  12  19
ENDBRANCH   8  16
ENDBRANCH   7  10
ENDBRANCH   1   7
BRANCH   4  20
ATOM     20  C   UNL     1      49.127   7.628  17.744  0.00  0.00    +0.000 C 
BRANCH  20  21
ATOM     21  N   UNL     1      50.190   6.677  17.960  0.00  0.00    +0.000 N 
ATOM     22  C   UNL     1      49.989   5.533  18.693  0.00  0.00    +0.000 C 
ATOM     23  O   UNL     1      48.897   5.247  19.178  0.00  0.00    +0.000 OA
ATOM     24  H   UNL     1      51.139   7.016  17.837  0.00  0.00    +0.000 HD
BRANCH  22  25
ATOM     25  C   UNL     1      51.141   4.630  18.817  0.00  0.00    +0.000 A 
ATOM     26  C   UNL     1      52.237   4.999  19.587  0.00  0.00    +0.000 A 
ATOM     27  S   UNL     1      53.460   3.809  19.648  0.00  0.00    +0.000 S 
ATOM     28  C   UNL     1      52.590   2.782  18.607  0.00  0.00    +0.000 A 
ATOM     29  N   UNL     1      53.100   1.584  18.216  0.00  0.00    +0.000 NA
ATOM     30  C   UNL     1      52.347   0.924  17.399  0.00  0.00    +0.000 A 
ATOM     31  N   UNL     1      51.125   1.351  16.945  0.00  0.00    +0.000 N 
ATOM     32  C   UNL     1      50.551   2.531  17.351  0.00  0.00    +0.000 A 
ATOM     33  O   UNL     1      49.423   2.849  16.986  0.00  0.00    +0.000 OA
ATOM     34  C   UNL     1      51.371   3.327  18.244  0.00  0.00    +0.000 A 
ATOM     35  H   UNL     1      50.574   0.778  16.323  0.00  0.00    +0.000 HD
ENDBRANCH  22  25
ENDBRANCH  20  21
ENDBRANCH   4  20
TORSDOF 7
ENDMDL
MODEL 6
REMARK VINA RESULT:    -7.307      2.110      2.785
REMARK INTER + INTRA:         -10.755
REMARK INTER:                  -9.756
REMARK INTRA:                  -0.999
REMARK UNBOUND:                -0.458
REMARK  Name = 
REMARK  8 active torsions:
REMARK  status: ('A' for Active; 'I' for Inactive)
REMARK    1  A    between atoms: C_1  and  O_2
REMARK    2  A    between atoms: O_2  and  C_3
REMARK    3  A    between atoms: C_7  and  C_8
REMARK    4  A    between atoms: N_10  and  C_11
REMARK    5  A    between atoms: C_11  and  C_12
REMARK    6  A    between atoms: C_15  and  C_16
REMARK    7  A    between atoms: C_16  and  N_17
REMARK    8  A    between atoms: C_18  and  C_20
REMARK                            x       y       z     vdW  Elec       q    Type
REMARK                         _______ _______ _______ _____ _____    ______ ____
ROOT
ATOM      1  C   UNL     1      45.642   6.742  11.748  0.00  0.00    +0.000 A 
ATOM      2  C   UNL     1      46.607   5.963  12.405  0.00  0.00    +0.000 A 
ATOM      3  C   UNL     1      47.449   6.526  13.372  0.00  0.00    +0.000 A 
ATOM      4  C   UNL     1      47.334   7.879  13.720  0.00  0.00    +0.000 A 
ATOM      5  C   UNL     1      46.371   8.657  13.062  0.00  0.00    +0.000 A 
ATOM      6  C   UNL     1      45.526   8.094  12.098  0.00  0.00    +0.000 A 
ENDROOT
BRANCH   1   7
ATOM      7  C   UNL     1      44.739   6.133  10.705  0.00  0.00    +0.000 C 
BRANCH   7  10
ATOM      8  C   UNL     1      44.896   4.063   9.388  0.00  0.00    +0.000 C 
ATOM      9  O   UNL     1      43.792   3.667   9.754  0.00  0.00    +0.000 OA
ATOM     10  N   UNL     1      45.463   5.244   9.821  0.00  0.00    +0.000 N 
ATOM     11  H   UNL     1      46.268   5.617   9.337  0.00  0.00    +0.000 HD
BRANCH   8  16
ATOM     12  C   UNL     1      46.633   1.158   7.693  0.00  0.00    +0.000 A 
ATOM     13  C   UNL     1      47.029   1.736   6.487  0.00  0.00    +0.000 A 
ATOM     14  C   UNL     1      46.770   3.087   6.234  0.00  0.00    +0.000 A 
ATOM     15  C   UNL     1      46.096   3.864   7.177  0.00  0.00    +0.000 A 
ATOM     16  C   UNL     1      45.676   3.286   8.380  0.00  0.00    +0.000 A 
ATOM     17  C   UNL     1      45.975   1.944   8.646  0.00  0.00    +0.000 A 
BRANCH  12  19
ATOM     18  C   UNL     1      46.448  -1.140   7.091  0.00  0.00    +0.000 C 
ATOM     19  O   UNL     1      46.808  -0.151   8.049  0.00  0.00    +0.000 OA
ENDBRANCH  12  19
ENDBRANCH   8  16
ENDBRANCH   7  10
ENDBRANCH   1   7
BRANCH   4  20
ATOM     20  C   UNL     1      48.224   8.505  14.769  0.00  0.00    +0.000 C 
BRANCH  20  21
ATOM     21  N   UNL     1      48.081   7.865  16.053  0.00  0.00    +0.000 N 
ATOM     22  C   UNL     1      49.173   7.416  16.755  0.00  0.00    +0.000 C 
ATOM     23  O   UNL     1      50.322   7.560  16.344  0.00  0.00    +0.000 OA
ATOM     24  H   UNL     1      47.169   7.476  16.271  0.00  0.00    +0.000 HD
BRANCH  22  25
ATOM     25  C   UNL     1      48.899   6.807  18.064  0.00  0.00    +0.000 A 
ATOM     26  C   UNL     1      49.203   5.471  18.288  0.00  0.00    +0.000 A 
ATOM     27  S   UNL     1      48.855   4.949  19.876  0.00  0.00    +0.000 S 
ATOM     28  C   UNL     1      48.240   6.477  20.302  0.00  0.00    +0.000 A 
ATOM     29  N   UNL     1      47.731   6.708  21.543  0.00  0.00    +0.000 NA
ATOM     30  C   UNL     1      47.269   7.901  21.716  0.00  0.00    +0.000 A 
ATOM     31  N   UNL     1      47.278   8.889  20.764  0.00  0.00    +0.000 N 
ATOM     32  C   UNL     1      47.824   8.715  19.516  0.00  0.00    +0.000 A 
ATOM     33  O   UNL     1      47.885   9.640  18.713  0.00  0.00    +0.000 OA
ATOM     34  C   UNL     1      48.327   7.379  19.258  0.00  0.00    +0.000 A 
ATOM     35  H   UNL     1      46.921   9.810  20.969  0.00  0.00    +0.000 HD
ENDBRANCH  22  25
ENDBRANCH  20  21
ENDBRANCH   4  20
TORSDOF 7
ENDMDL
MODEL 7
REMARK VINA RESULT:    -7.227      4.221      5.807
REMARK INTER + INTRA:         -10.643
REMARK INTER:                  -9.403
REMARK INTRA:                  -1.241
REMARK UNBOUND:                -0.458
REMARK  Name = 
REMARK  8 active torsions:
REMARK  status: ('A' for Active; 'I' for Inactive)
REMARK    1  A    between atoms: C_1  and  O_2
REMARK    2  A    between atoms: O_2  and  C_3
REMARK    3  A    between atoms: C_7  and  C_8
REMARK    4  A    between atoms: N_10  and  C_11
REMARK    5  A    between atoms: C_11  and  C_12
REMARK    6  A    between atoms: C_15  and  C_16
REMARK    7  A    between atoms: C_16  and  N_17
REMARK    8  A    between atoms: C_18  and  C_20
REMARK                            x       y       z     vdW  Elec       q    Type
REMARK                         _______ _______ _______ _____ _____    ______ ____
ROOT
ATOM      1  C   UNL     1      45.356   7.168  12.599  0.00  0.00    +0.000 A 
ATOM      2  C   UNL     1      44.782   8.316  12.033  0.00  0.00    +0.000 A 
ATOM      3  C   UNL     1      45.529   9.490  11.874  0.00  0.00    +0.000 A 
ATOM      4  C   UNL     1      46.876   9.539  12.262  0.00  0.00    +0.000 A 
ATOM      5  C   UNL     1      47.448   8.391  12.828  0.00  0.00    +0.000 A 
ATOM      6  C   UNL     1      46.703   7.216  12.983  0.00  0.00    +0.000 A 
ENDROOT
BRANCH   1   7
ATOM      7  C   UNL     1      44.548   5.906  12.771  0.00  0.00    +0.000 C 
BRANCH   7  10
ATOM      8  C   UNL     1      44.189   4.737  10.639  0.00  0.00    +0.000 C 
ATOM      9  O   UNL     1      43.177   5.384  10.378  0.00  0.00    +0.000 OA
ATOM     10  N   UNL     1      44.915   4.897  11.801  0.00  0.00    +0.000 N 
ATOM     11  H   UNL     1      45.839   4.495  11.869  0.00  0.00    +0.000 HD
BRANCH   8  16
ATOM     12  C   UNL     1      45.970   3.356   7.598  0.00  0.00    +0.000 A 
ATOM     13  C   UNL     1      45.869   1.981   7.816  0.00  0.00    +0.000 A 
ATOM     14  C   UNL     1      45.184   1.494   8.934  0.00  0.00    +0.000 A 
ATOM     15  C   UNL     1      44.614   2.378   9.851  0.00  0.00    +0.000 A 
ATOM     16  C   UNL     1      44.729   3.757   9.651  0.00  0.00    +0.000 A 
ATOM     17  C   UNL     1      45.379   4.240   8.507  0.00  0.00    +0.000 A 
BRANCH  12  19
ATOM     18  C   UNL     1      47.053   3.118   5.489  0.00  0.00    +0.000 C 
ATOM     19  O   UNL     1      46.627   3.955   6.559  0.00  0.00    +0.000 OA
ENDBRANCH  12  19
ENDBRANCH   8  16
ENDBRANCH   7  10
ENDBRANCH   1   7
BRANCH   4  20
ATOM     20  C   UNL     1      47.704  10.791  12.090  0.00  0.00    +0.000 C 
BRANCH  20  21
ATOM     21  N   UNL     1      48.924  10.538  11.362  0.00  0.00    +0.000 N 
ATOM     22  C   UNL     1      50.153  10.833  11.900  0.00  0.00    +0.000 C 
ATOM     23  O   UNL     1      50.281  11.299  13.030  0.00  0.00    +0.000 OA
ATOM     24  H   UNL     1      48.844  10.441  10.355  0.00  0.00    +0.000 HD
BRANCH  22  25
ATOM     25  C   UNL     1      51.321  10.501  11.072  0.00  0.00    +0.000 A 
ATOM     26  C   UNL     1      52.096  11.515  10.524  0.00  0.00    +0.000 A 
ATOM     27  S   UNL     1      53.433  10.943   9.628  0.00  0.00    +0.000 S 
ATOM     28  C   UNL     1      52.992   9.322   9.900  0.00  0.00    +0.000 A 
ATOM     29  N   UNL     1      53.712   8.299   9.367  0.00  0.00    +0.000 NA
ATOM     30  C   UNL     1      53.244   7.123   9.627  0.00  0.00    +0.000 A 
ATOM     31  N   UNL     1      52.124   6.878  10.381  0.00  0.00    +0.000 N 
ATOM     32  C   UNL     1      51.394   7.877  10.977  0.00  0.00    +0.000 A 
ATOM     33  O   UNL     1      50.442   7.621  11.707  0.00  0.00    +0.000 OA
ATOM     34  C   UNL     1      51.859   9.220  10.688  0.00  0.00    +0.000 A 
ATOM     35  H   UNL     1      51.821   5.933  10.566  0.00  0.00    +0.000 HD
ENDBRANCH  22  25
ENDBRANCH  20  21
ENDBRANCH   4  20
TORSDOF 7
ENDMDL
MODEL 8
REMARK VINA RESULT:    -7.214      5.775      8.165
REMARK INTER + INTRA:         -10.624
REMARK INTER:                  -9.549
REMARK INTRA:                  -1.075
REMARK UNBOUND:                -0.458
REMARK  Name = 
REMARK  8 active torsions:
REMARK  status: ('A' for Active; 'I' for Inactive)
REMARK    1  A    between atoms: C_1  and  O_2
REMARK    2  A    between atoms: O_2  and  C_3
REMARK    3  A    between atoms: C_7  and  C_8
REMARK    4  A    between atoms: N_10  and  C_11
REMARK    5  A    between atoms: C_11  and  C_12
REMARK    6  A    between atoms: C_15  and  C_16
REMARK    7  A    between atoms: C_16  and  N_17
REMARK    8  A    between atoms: C_18  and  C_20
REMARK                            x       y       z     vdW  Elec       q    Type
REMARK                         _______ _______ _______ _____ _____    ______ ____
ROOT
ATOM      1  C   UNL     1      49.164   7.224  13.723  0.00  0.00    +0.000 A 
ATOM      2  C   UNL     1      50.301   7.762  14.342  0.00  0.00    +0.000 A 
ATOM      3  C   UNL     1      51.274   8.440  13.596  0.00  0.00    +0.000 A 
ATOM      4  C   UNL     1      51.122   8.612  12.213  0.00  0.00    +0.000 A 
ATOM      5  C   UNL     1      49.986   8.073  11.595  0.00  0.00    +0.000 A 
ATOM      6  C   UNL     1      49.011   7.399  12.341  0.00  0.00    +0.000 A 
ENDROOT
BRANCH   1   7
ATOM      7  C   UNL     1      48.120   6.492  14.529  0.00  0.00    +0.000 C 
BRANCH   7  10
ATOM      8  C   UNL     1      46.596   4.948  13.374  0.00  0.00    +0.000 C 
ATOM      9  O   UNL     1      47.298   3.968  13.614  0.00  0.00    +0.000 OA
ATOM     10  N   UNL     1      46.926   6.232  13.752  0.00  0.00    +0.000 N 
ATOM     11  H   UNL     1      46.226   6.959  13.713  0.00  0.00    +0.000 HD
BRANCH   8  16
ATOM     12  C   UNL     1      43.899   3.506  11.144  0.00  0.00    +0.000 A 
ATOM     13  C   UNL     1      42.813   4.326  11.453  0.00  0.00    +0.000 A 
ATOM     14  C   UNL     1      42.963   5.380  12.359  0.00  0.00    +0.000 A 
ATOM     15  C   UNL     1      44.194   5.609  12.977  0.00  0.00    +0.000 A 
ATOM     16  C   UNL     1      45.281   4.778  12.689  0.00  0.00    +0.000 A 
ATOM     17  C   UNL     1      45.137   3.750  11.748  0.00  0.00    +0.000 A 
BRANCH  12  19
ATOM     18  C   UNL     1      44.927   2.335   9.340  0.00  0.00    +0.000 C 
ATOM     19  O   UNL     1      43.875   2.434  10.294  0.00  0.00    +0.000 OA
ENDBRANCH  12  19
ENDBRANCH   8  16
ENDBRANCH   7  10
ENDBRANCH   1   7
BRANCH   4  20
ATOM     20  C   UNL     1      52.153   9.350  11.389  0.00  0.00    +0.000 C 
BRANCH  20  21
ATOM     21  N   UNL     1      52.352   8.738  10.098  0.00  0.00    +0.000 N 
ATOM     22  C   UNL     1      53.450   9.034   9.327  0.00  0.00    +0.000 C 
ATOM     23  O   UNL     1      54.328   9.807   9.704  0.00  0.00    +0.000 OA
ATOM     24  H   UNL     1      51.532   8.346   9.646  0.00  0.00    +0.000 HD
BRANCH  22  25
ATOM     25  C   UNL     1      53.554   8.324   8.045  0.00  0.00    +0.000 A 
ATOM     26  C   UNL     1      53.589   9.039   6.854  0.00  0.00    +0.000 A 
ATOM     27  S   UNL     1      53.754   8.051   5.471  0.00  0.00    +0.000 S 
ATOM     28  C   UNL     1      53.732   6.634   6.412  0.00  0.00    +0.000 A 
ATOM     29  N   UNL     1      53.802   5.405   5.833  0.00  0.00    +0.000 NA
ATOM     30  C   UNL     1      53.741   4.418   6.664  0.00  0.00    +0.000 A 
ATOM     31  N   UNL     1      53.627   4.550   8.025  0.00  0.00    +0.000 N 
ATOM     32  C   UNL     1      53.600   5.769   8.656  0.00  0.00    +0.000 A 
ATOM     33  O   UNL     1      53.573   5.853   9.880  0.00  0.00    +0.000 OA
ATOM     34  C   UNL     1      53.632   6.912   7.763  0.00  0.00    +0.000 A 
ATOM     35  H   UNL     1      53.606   3.738   8.624  0.00  0.00    +0.000 HD
ENDBRANCH  22  25
ENDBRANCH  20  21
ENDBRANCH   4  20
TORSDOF 7
ENDMDL
MODEL 9
REMARK VINA RESULT:    -7.207      2.005      3.110
REMARK INTER + INTRA:         -10.614
REMARK INTER:                  -9.749
REMARK INTRA:                  -0.865
REMARK UNBOUND:                -0.458
REMARK  Name = 
REMARK  8 active torsions:
REMARK  status: ('A' for Active; 'I' for Inactive)
REMARK    1  A    between atoms: C_1  and  O_2
REMARK    2  A    between atoms: O_2  and  C_3
REMARK    3  A    between atoms: C_7  and  C_8
REMARK    4  A    between atoms: N_10  and  C_11
REMARK    5  A    between atoms: C_11  and  C_12
REMARK    6  A    between atoms: C_15  and  C_16
REMARK    7  A    between atoms: C_16  and  N_17
REMARK    8  A    between atoms: C_18  and  C_20
REMARK                            x       y       z     vdW  Elec       q    Type
REMARK                         _______ _______ _______ _____ _____    ______ ____
ROOT
ATOM      1  C   UNL     1      46.882   7.748  12.566  0.00  0.00    +0.000 A 
ATOM      2  C   UNL     1      46.937   8.559  13.709  0.00  0.00    +0.000 A 
ATOM      3  C   UNL     1      48.127   8.700  14.435  0.00  0.00    +0.000 A 
ATOM      4  C   UNL     1      49.297   8.047  14.024  0.00  0.00    +0.000 A 
ATOM      5  C   UNL     1      49.240   7.234  12.882  0.00  0.00    +0.000 A 
ATOM      6  C   UNL     1      48.053   7.096  12.155  0.00  0.00    +0.000 A 
ENDROOT
BRANCH   1   7
ATOM      7  C   UNL     1      45.599   7.595  11.790  0.00  0.00    +0.000 C 
BRANCH   7  10
ATOM      8  C   UNL     1      44.981   5.300  11.163  0.00  0.00    +0.000 C 
ATOM      9  O   UNL     1      44.353   5.114  12.203  0.00  0.00    +0.000 OA
ATOM     10  N   UNL     1      45.652   6.471  10.879  0.00  0.00    +0.000 N 
ATOM     11  H   UNL     1      45.972   6.646   9.937  0.00  0.00    +0.000 HD
BRANCH   8  16
ATOM     12  C   UNL     1      45.698   3.577   7.870  0.00  0.00    +0.000 A 
ATOM     13  C   UNL     1      45.170   2.306   8.099  0.00  0.00    +0.000 A 
ATOM     14  C   UNL     1      44.539   2.014   9.313  0.00  0.00    +0.000 A 
ATOM     15  C   UNL     1      44.450   2.985  10.312  0.00  0.00    +0.000 A 
ATOM     16  C   UNL     1      44.997   4.254  10.098  0.00  0.00    +0.000 A 
ATOM     17  C   UNL     1      45.590   4.554   8.865  0.00  0.00    +0.000 A 
BRANCH  12  19
ATOM     18  C   UNL     1      46.779   2.962   5.837  0.00  0.00    +0.000 C 
ATOM     19  O   UNL     1      46.354   3.978   6.739  0.00  0.00    +0.000 OA
ENDBRANCH  12  19
ENDBRANCH   8  16
ENDBRANCH   7  10
ENDBRANCH   1   7
BRANCH   4  20
ATOM     20  C   UNL     1      50.595   8.193  14.784  0.00  0.00    +0.000 C 
BRANCH  20  21
ATOM     21  N   UNL     1      50.402   8.088  16.210  0.00  0.00    +0.000 N 
ATOM     22  C   UNL     1      50.567   6.894  16.869  0.00  0.00    +0.000 C 
ATOM     23  O   UNL     1      50.911   5.867  16.289  0.00  0.00    +0.000 OA
ATOM     24  H   UNL     1      49.848   8.815  16.651  0.00  0.00    +0.000 HD
BRANCH  22  25
ATOM     25  C   UNL     1      50.371   6.923  18.325  0.00  0.00    +0.000 A 
ATOM     26  C   UNL     1      50.888   7.970  19.077  0.00  0.00    +0.000 A 
ATOM     27  S   UNL     1      50.526   7.857  20.742  0.00  0.00    +0.000 S 
ATOM     28  C   UNL     1      49.711   6.380  20.521  0.00  0.00    +0.000 A 
ATOM     29  N   UNL     1      49.175   5.709  21.576  0.00  0.00    +0.000 NA
ATOM     30  C   UNL     1      48.616   4.586  21.267  0.00  0.00    +0.000 A 
ATOM     31  N   UNL     1      48.536   4.078  19.996  0.00  0.00    +0.000 N 
ATOM     32  C   UNL     1      49.021   4.743  18.896  0.00  0.00    +0.000 A 
ATOM     33  O   UNL     1      48.867   4.297  17.763  0.00  0.00    +0.000 OA
ATOM     34  C   UNL     1      49.689   5.995  19.193  0.00  0.00    +0.000 A 
ATOM     35  H   UNL     1      48.066   3.203  19.816  0.00  0.00    +0.000 HD
ENDBRANCH  22  25
ENDBRANCH  20  21
ENDBRANCH   4  20
TORSDOF 7
ENDMDL
