MODEL 1
REMARK VINA RESULT:    -8.680      0.000      0.000
REMARK INTER + INTRA:         -15.448
REMARK INTER:                 -13.754
REMARK INTRA:                  -1.694
REMARK UNBOUND:                -1.694
REMARK  Name = 
REMARK  13 active torsions:
REMARK  status: ('A' for Active; 'I' for Inactive)
REMARK    1  A    between atoms: C_1  and  C_2
REMARK    2  A    between atoms: C_2  and  C_3
REMARK    3  A    between atoms: C_2  and  C_4
REMARK    4  A    between atoms: C_6  and  O_7
REMARK    5  A    between atoms: O_7  and  C_8
REMARK    6  A    between atoms: C_8  and  C_9
REMARK    7  A    between atoms: C_13  and  C_14
REMARK    8  A    between atoms: C_19  and  C_20
REMARK    9  A    between atoms: C_20  and  C_21
REMARK   10  A    between atoms: C_20  and  C_22
REMARK   11  A    between atoms: C_22  and  O_23
REMARK   12  A    between atoms: O_23  and  C_24
REMARK   13  A    between atoms: C_28  and  C_29
REMARK                            x       y       z     vdW  Elec       q    Type
REMARK                         _______ _______ _______ _____ _____    ______ ____
ROOT
ATOM      1  C   UNL     1      45.593   7.899  12.342  0.00  0.00    +0.000 A 
ATOM      2  C   UNL     1      46.896   7.651  12.803  0.00  0.00    +0.000 A 
ATOM      3  C   UNL     1      47.308   6.343  13.084  0.00  0.00    +0.000 A 
ATOM      4  C   UNL     1      46.449   5.273  12.838  0.00  0.00    +0.000 A 
ATOM      5  C   UNL     1      45.141   5.486  12.404  0.00  0.00    +0.000 A 
ATOM      6  C   UNL     1      44.750   6.801  12.129  0.00  0.00    +0.000 A 
ENDROOT
BRANCH   1   8
ATOM      7  C   UNL     1      46.237  10.268  11.802  0.00  0.00    +0.000 C 
ATOM      8  C   UNL     1      45.084   9.317  12.115  0.00  0.00    +0.000 C 
ATOM      9  C   UNL     1      44.022   9.415  11.003  0.00  0.00    +0.000 C 
ENDBRANCH   1   8
BRANCH   5  10
ATOM     10  C   UNL     1      44.197   4.298  12.308  0.00  0.00    +0.000 C 
ATOM     11  C   UNL     1      43.208   4.318  13.486  0.00  0.00    +0.000 C 
BRANCH  10  12
ATOM     12  C   UNL     1      43.396   4.226  11.000  0.00  0.00    +0.000 C 
BRANCH  12  13
ATOM     13  O   UNL     1      43.798   3.068  10.259  0.00  0.00    +0.000 OA
BRANCH  13  14
ATOM     14  C   UNL     1      44.766   3.263   9.316  0.00  0.00    +0.000 A 
ATOM     15  C   UNL     1      45.163   4.512   8.823  0.00  0.00    +0.000 A 
ATOM     16  C   UNL     1      46.141   4.596   7.837  0.00  0.00    +0.000 A 
ATOM     17  C   UNL     1      46.740   3.439   7.348  0.00  0.00    +0.000 A 
ATOM     18  C   UNL     1      46.373   2.186   7.857  0.00  0.00    +0.000 A 
ATOM     19  C   UNL     1      45.368   2.100   8.829  0.00  0.00    +0.000 A 
BRANCH  18  20
ATOM     20  C   UNL     1      47.086   0.994   7.333  0.00  0.00    +0.000 C 
ATOM     21  N   UNL     1      46.627  -0.236   7.716  0.00  0.00    +0.000 N 
ATOM     22  O   UNL     1      48.084   1.099   6.633  0.00  0.00    +0.000 OA
ATOM     23  H   UNL     1      45.945  -0.365   8.448  0.00  0.00    +0.000 HD
ATOM     24  H   UNL     1      47.209  -1.025   7.465  0.00  0.00    +0.000 HD
ENDBRANCH  18  20
ENDBRANCH  13  14
ENDBRANCH  12  13
ENDBRANCH  10  12
ENDBRANCH   5  10
BRANCH   3  25
ATOM     25  O   UNL     1      48.550   6.186  13.647  0.00  0.00    +0.000 OA
BRANCH  25  26
ATOM     26  C   UNL     1      48.793   7.056  14.759  0.00  0.00    +0.000 C 
BRANCH  26  27
ATOM     27  C   UNL     1      49.179   6.232  15.958  0.00  0.00    +0.000 A 
ATOM     28  C   UNL     1      50.360   6.512  16.651  0.00  0.00    +0.000 A 
ATOM     29  C   UNL     1      50.695   5.770  17.782  0.00  0.00    +0.000 A 
ATOM     30  C   UNL     1      49.844   4.763  18.235  0.00  0.00    +0.000 A 
ATOM     31  C   UNL     1      48.656   4.481  17.552  0.00  0.00    +0.000 A 
ATOM     32  C   UNL     1      48.340   5.199  16.398  0.00  0.00    +0.000 A 
BRANCH  31  33
ATOM     33  C   UNL     1      47.754   3.431  18.092  0.00  0.00    +0.000 C 
ATOM     34  N   UNL     1      48.106   2.852  19.284  0.00  0.00    +0.000 N 
ATOM     35  O   UNL     1      46.760   3.055  17.480  0.00  0.00    +0.000 OA
ATOM     36  H   UNL     1      49.030   2.944  19.676  0.00  0.00    +0.000 HD
ATOM     37  H   UNL     1      47.558   2.047  19.560  0.00  0.00    +0.000 HD
ENDBRANCH  31  33
ENDBRANCH  26  27
ENDBRANCH  25  26
ENDBRANCH   3  25
TORSDOF 10
ENDMDL
MODEL 2
REMARK VINA RESULT:    -8.634      1.281      1.741
REMARK INTER + INTRA:         -15.376
REMARK INTER:                 -13.680
REMARK INTRA:                  -1.696
REMARK UNBOUND:                -1.694
REMARK  Name = 
REMARK  13 active torsions:
REMARK  status: ('A' for Active; 'I' for Inactive)
REMARK    1  A    between atoms: C_1  and  C_2
REMARK    2  A    between atoms: C_2  and  C_3
REMARK    3  A    between atoms: C_2  and  C_4
REMARK    4  A    between atoms: C_6  and  O_7
REMARK    5  A    between atoms: O_7  and  C_8
REMARK    6  A    between atoms: C_8  and  C_9
REMARK    7  A    between atoms: C_13  and  C_14
REMARK    8  A    between atoms: C_19  and  C_20
REMARK    9  A    between atoms: C_20  and  C_21
REMARK   10  A    between atoms: C_20  and  C_22
REMARK   11  A    between atoms: C_22  and  O_23
REMARK   12  A    between atoms: O_23  and  C_24
REMARK   13  A    between atoms: C_28  and  C_29
REMARK                            x       y       z     vdW  Elec       q    Type
REMARK                         _______ _______ _______ _____ _____    ______ ____
ROOT
ATOM      1  C   UNL     1      45.562   7.656  12.551  0.00  0.00    +0.000 A 
ATOM      2  C   UNL     1      46.786   7.253  13.107  0.00  0.00    +0.000 A 
ATOM      3  C   UNL     1      47.009   5.907  13.421  0.00  0.00    +0.000 A 
ATOM      4  C   UNL     1      46.042   4.950  13.116  0.00  0.00    +0.000 A 
ATOM      5  C   UNL     1      44.806   5.320  12.587  0.00  0.00    +0.000 A 
ATOM      6  C   UNL     1      44.605   6.670  12.279  0.00  0.00    +0.000 A 
ENDROOT
BRANCH   1   8
ATOM      7  C   UNL     1      46.534   9.914  12.023  0.00  0.00    +0.000 C 
ATOM      8  C   UNL     1      45.253   9.124  12.283  0.00  0.00    +0.000 C 
ATOM      9  C   UNL     1      44.272   9.339  11.115  0.00  0.00    +0.000 C 
ENDBRANCH   1   8
BRANCH   5  10
ATOM     10  C   UNL     1      43.730   4.258  12.425  0.00  0.00    +0.000 C 
ATOM     11  C   UNL     1      42.538   4.836  11.641  0.00  0.00    +0.000 C 
BRANCH  10  12
ATOM     12  C   UNL     1      44.201   2.978  11.720  0.00  0.00    +0.000 C 
BRANCH  12  13
ATOM     13  O   UNL     1      43.761   2.997  10.356  0.00  0.00    +0.000 OA
BRANCH  13  14
ATOM     14  C   UNL     1      44.722   3.240   9.417  0.00  0.00    +0.000 A 
ATOM     15  C   UNL     1      45.121   4.513   8.991  0.00  0.00    +0.000 A 
ATOM     16  C   UNL     1      46.092   4.647   8.003  0.00  0.00    +0.000 A 
ATOM     17  C   UNL     1      46.681   3.516   7.446  0.00  0.00    +0.000 A 
ATOM     18  C   UNL     1      46.312   2.240   7.888  0.00  0.00    +0.000 A 
ATOM     19  C   UNL     1      45.315   2.103   8.861  0.00  0.00    +0.000 A 
BRANCH  18  20
ATOM     20  C   UNL     1      47.016   1.075   7.293  0.00  0.00    +0.000 C 
ATOM     21  N   UNL     1      46.664  -0.170   7.735  0.00  0.00    +0.000 N 
ATOM     22  O   UNL     1      47.919   1.218   6.480  0.00  0.00    +0.000 OA
ATOM     23  H   UNL     1      46.078  -0.322   8.543  0.00  0.00    +0.000 HD
ATOM     24  H   UNL     1      47.249  -0.934   7.424  0.00  0.00    +0.000 HD
ENDBRANCH  18  20
ENDBRANCH  13  14
ENDBRANCH  12  13
ENDBRANCH  10  12
ENDBRANCH   5  10
BRANCH   3  25
ATOM     25  O   UNL     1      48.177   5.602  14.075  0.00  0.00    +0.000 OA
BRANCH  25  26
ATOM     26  C   UNL     1      48.348   6.308  15.310  0.00  0.00    +0.000 C 
BRANCH  26  27
ATOM     27  C   UNL     1      48.416   5.318  16.442  0.00  0.00    +0.000 A 
ATOM     28  C   UNL     1      47.466   4.298  16.540  0.00  0.00    +0.000 A 
ATOM     29  C   UNL     1      47.553   3.363  17.570  0.00  0.00    +0.000 A 
ATOM     30  C   UNL     1      48.599   3.431  18.489  0.00  0.00    +0.000 A 
ATOM     31  C   UNL     1      49.559   4.445  18.394  0.00  0.00    +0.000 A 
ATOM     32  C   UNL     1      49.448   5.403  17.386  0.00  0.00    +0.000 A 
BRANCH  31  33
ATOM     33  C   UNL     1      50.683   4.457  19.366  0.00  0.00    +0.000 C 
ATOM     34  N   UNL     1      50.365   4.593  20.692  0.00  0.00    +0.000 N 
ATOM     35  O   UNL     1      51.853   4.399  19.003  0.00  0.00    +0.000 OA
ATOM     36  H   UNL     1      49.456   4.901  21.001  0.00  0.00    +0.000 HD
ATOM     37  H   UNL     1      51.146   4.740  21.319  0.00  0.00    +0.000 HD
ENDBRANCH  31  33
ENDBRANCH  26  27
ENDBRANCH  25  26
ENDBRANCH   3  25
TORSDOF 10
ENDMDL
MODEL 3
REMARK VINA RESULT:    -8.455      1.920      2.548
REMARK INTER + INTRA:         -15.091
REMARK INTER:                 -13.332
REMARK INTRA:                  -1.759
REMARK UNBOUND:                -1.694
REMARK  Name = 
REMARK  13 active torsions:
REMARK  status: ('A' for Active; 'I' for Inactive)
REMARK    1  A    between atoms: C_1  and  C_2
REMARK    2  A    between atoms: C_2  and  C_3
REMARK    3  A    between atoms: C_2  and  C_4
REMARK    4  A    between atoms: C_6  and  O_7
REMARK    5  A    between atoms: O_7  and  C_8
REMARK    6  A    between atoms: C_8  and  C_9
REMARK    7  A    between atoms: C_13  and  C_14
REMARK    8  A    between atoms: C_19  and  C_20
REMARK    9  A    between atoms: C_20  and  C_21
REMARK   10  A    between atoms: C_20  and  C_22
REMARK   11  A    between atoms: C_22  and  O_23
REMARK   12  A    between atoms: O_23  and  C_24
REMARK   13  A    between atoms: C_28  and  C_29
REMARK                            x       y       z     vdW  Elec       q    Type
REMARK                         _______ _______ _______ _____ _____    ______ ____
ROOT
ATOM      1  C   UNL     1      46.925   6.135  12.730  0.00  0.00    +0.000 A 
ATOM      2  C   UNL     1      47.608   5.206  13.531  0.00  0.00    +0.000 A 
ATOM      3  C   UNL     1      46.985   4.013  13.914  0.00  0.00    +0.000 A 
ATOM      4  C   UNL     1      45.710   3.708  13.441  0.00  0.00    +0.000 A 
ATOM      5  C   UNL     1      44.994   4.619  12.665  0.00  0.00    +0.000 A 
ATOM      6  C   UNL     1      45.635   5.806  12.293  0.00  0.00    +0.000 A 
ENDROOT
BRANCH   1   8
ATOM      7  C   UNL     1      47.234   8.524  13.448  0.00  0.00    +0.000 C 
ATOM      8  C   UNL     1      47.537   7.483  12.372  0.00  0.00    +0.000 C 
ATOM      9  C   UNL     1      49.058   7.420  12.133  0.00  0.00    +0.000 C 
ENDBRANCH   1   8
BRANCH   5  10
ATOM     10  C   UNL     1      43.548   4.306  12.314  0.00  0.00    +0.000 C 
ATOM     11  C   UNL     1      42.618   5.368  12.927  0.00  0.00    +0.000 C 
BRANCH  10  12
ATOM     12  C   UNL     1      43.263   4.222  10.807  0.00  0.00    +0.000 C 
BRANCH  12  13
ATOM     13  O   UNL     1      43.893   3.053  10.269  0.00  0.00    +0.000 OA
BRANCH  13  14
ATOM     14  C   UNL     1      44.851   3.268   9.320  0.00  0.00    +0.000 A 
ATOM     15  C   UNL     1      45.238   4.526   8.844  0.00  0.00    +0.000 A 
ATOM     16  C   UNL     1      46.206   4.631   7.850  0.00  0.00    +0.000 A 
ATOM     17  C   UNL     1      46.805   3.484   7.337  0.00  0.00    +0.000 A 
ATOM     18  C   UNL     1      46.447   2.222   7.829  0.00  0.00    +0.000 A 
ATOM     19  C   UNL     1      45.452   2.115   8.808  0.00  0.00    +0.000 A 
BRANCH  18  20
ATOM     20  C   UNL     1      47.161   1.042   7.278  0.00  0.00    +0.000 C 
ATOM     21  N   UNL     1      48.063   1.260   6.275  0.00  0.00    +0.000 N 
ATOM     22  O   UNL     1      46.913  -0.094   7.661  0.00  0.00    +0.000 OA
ATOM     23  H   UNL     1      48.147   2.142   5.792  0.00  0.00    +0.000 HD
ATOM     24  H   UNL     1      48.431   0.434   5.820  0.00  0.00    +0.000 HD
ENDBRANCH  18  20
ENDBRANCH  13  14
ENDBRANCH  12  13
ENDBRANCH  10  12
ENDBRANCH   5  10
BRANCH   3  25
ATOM     25  O   UNL     1      47.663   3.209  14.796  0.00  0.00    +0.000 OA
BRANCH  25  26
ATOM     26  C   UNL     1      47.453   3.555  16.171  0.00  0.00    +0.000 C 
BRANCH  26  27
ATOM     27  C   UNL     1      48.783   3.800  16.830  0.00  0.00    +0.000 A 
ATOM     28  C   UNL     1      49.088   5.061  17.347  0.00  0.00    +0.000 A 
ATOM     29  C   UNL     1      50.307   5.275  17.989  0.00  0.00    +0.000 A 
ATOM     30  C   UNL     1      51.214   4.226  18.132  0.00  0.00    +0.000 A 
ATOM     31  C   UNL     1      50.914   2.957  17.624  0.00  0.00    +0.000 A 
ATOM     32  C   UNL     1      49.710   2.756  16.948  0.00  0.00    +0.000 A 
BRANCH  31  33
ATOM     33  C   UNL     1      51.887   1.855  17.836  0.00  0.00    +0.000 C 
ATOM     34  N   UNL     1      52.954   2.108  18.659  0.00  0.00    +0.000 N 
ATOM     35  O   UNL     1      51.777   0.776  17.265  0.00  0.00    +0.000 OA
ATOM     36  H   UNL     1      53.216   3.043  18.931  0.00  0.00    +0.000 HD
ATOM     37  H   UNL     1      53.674   1.397  18.677  0.00  0.00    +0.000 HD
ENDBRANCH  31  33
ENDBRANCH  26  27
ENDBRANCH  25  26
ENDBRANCH   3  25
TORSDOF 10
ENDMDL
MODEL 4
REMARK VINA RESULT:    -8.129      2.754      5.470
REMARK INTER + INTRA:         -14.575
REMARK INTER:                 -12.845
REMARK INTRA:                  -1.729
REMARK UNBOUND:                -1.694
REMARK  Name = 
REMARK  13 active torsions:
REMARK  status: ('A' for Active; 'I' for Inactive)
REMARK    1  A    between atoms: C_1  and  C_2
REMARK    2  A    between atoms: C_2  and  C_3
REMARK    3  A    between atoms: C_2  and  C_4
REMARK    4  A    between atoms: C_6  and  O_7
REMARK    5  A    between atoms: O_7  and  C_8
REMARK    6  A    between atoms: C_8  and  C_9
REMARK    7  A    between atoms: C_13  and  C_14
REMARK    8  A    between atoms: C_19  and  C_20
REMARK    9  A    between atoms: C_20  and  C_21
REMARK   10  A    between atoms: C_20  and  C_22
REMARK   11  A    between atoms: C_22  and  O_23
REMARK   12  A    between atoms: O_23  and  C_24
REMARK   13  A    between atoms: C_28  and  C_29
REMARK                            x       y       z     vdW  Elec       q    Type
REMARK                         _______ _______ _______ _____ _____    ______ ____
ROOT
ATOM      1  C   UNL     1      47.149   4.959  14.651  0.00  0.00    +0.000 A 
ATOM      2  C   UNL     1      47.679   5.868  13.723  0.00  0.00    +0.000 A 
ATOM      3  C   UNL     1      46.987   6.150  12.538  0.00  0.00    +0.000 A 
ATOM      4  C   UNL     1      45.735   5.582  12.309  0.00  0.00    +0.000 A 
ATOM      5  C   UNL     1      45.192   4.656  13.200  0.00  0.00    +0.000 A 
ATOM      6  C   UNL     1      45.898   4.390  14.377  0.00  0.00    +0.000 A 
ENDROOT
BRANCH   1   8
ATOM      7  C   UNL     1      48.628   5.766  16.517  0.00  0.00    +0.000 C 
ATOM      8  C   UNL     1      47.918   4.560  15.905  0.00  0.00    +0.000 C 
ATOM      9  C   UNL     1      47.038   3.887  16.974  0.00  0.00    +0.000 C 
ENDBRANCH   1   8
BRANCH   5  10
ATOM     10  C   UNL     1      43.901   3.946  12.822  0.00  0.00    +0.000 C 
ATOM     11  C   UNL     1      42.920   4.948  12.188  0.00  0.00    +0.000 C 
BRANCH  10  12
ATOM     12  C   UNL     1      44.083   2.765  11.858  0.00  0.00    +0.000 C 
BRANCH  12  13
ATOM     13  O   UNL     1      43.610   3.137  10.557  0.00  0.00    +0.000 OA
BRANCH  13  14
ATOM     14  C   UNL     1      44.567   3.330   9.602  0.00  0.00    +0.000 A 
ATOM     15  C   UNL     1      44.954   4.578   9.099  0.00  0.00    +0.000 A 
ATOM     16  C   UNL     1      45.921   4.660   8.102  0.00  0.00    +0.000 A 
ATOM     17  C   UNL     1      46.518   3.502   7.612  0.00  0.00    +0.000 A 
ATOM     18  C   UNL     1      46.161   2.252   8.132  0.00  0.00    +0.000 A 
ATOM     19  C   UNL     1      45.167   2.166   9.115  0.00  0.00    +0.000 A 
BRANCH  18  20
ATOM     20  C   UNL     1      46.873   1.059   7.606  0.00  0.00    +0.000 C 
ATOM     21  N   UNL     1      47.841   1.265   6.664  0.00  0.00    +0.000 N 
ATOM     22  O   UNL     1      46.570  -0.075   7.955  0.00  0.00    +0.000 OA
ATOM     23  H   UNL     1      47.980   2.152   6.201  0.00  0.00    +0.000 HD
ATOM     24  H   UNL     1      48.212   0.436   6.218  0.00  0.00    +0.000 HD
ENDBRANCH  18  20
ENDBRANCH  13  14
ENDBRANCH  12  13
ENDBRANCH  10  12
ENDBRANCH   5  10
BRANCH   3  25
ATOM     25  O   UNL     1      47.619   6.951  11.620  0.00  0.00    +0.000 OA
BRANCH  25  26
ATOM     26  C   UNL     1      48.489   7.926  12.209  0.00  0.00    +0.000 C 
BRANCH  26  27
ATOM     27  C   UNL     1      48.009   9.305  11.844  0.00  0.00    +0.000 A 
ATOM     28  C   UNL     1      48.882  10.217  11.247  0.00  0.00    +0.000 A 
ATOM     29  C   UNL     1      48.424  11.481  10.878  0.00  0.00    +0.000 A 
ATOM     30  C   UNL     1      47.089  11.827  11.085  0.00  0.00    +0.000 A 
ATOM     31  C   UNL     1      46.206  10.917  11.675  0.00  0.00    +0.000 A 
ATOM     32  C   UNL     1      46.676   9.667  12.079  0.00  0.00    +0.000 A 
BRANCH  31  33
ATOM     33  C   UNL     1      44.782  11.308  11.837  0.00  0.00    +0.000 C 
ATOM     34  N   UNL     1      43.880  10.309  12.095  0.00  0.00    +0.000 N 
ATOM     35  O   UNL     1      44.410  12.470  11.699  0.00  0.00    +0.000 OA
ATOM     36  H   UNL     1      44.100   9.334  11.957  0.00  0.00    +0.000 HD
ATOM     37  H   UNL     1      42.904  10.577  12.062  0.00  0.00    +0.000 HD
ENDBRANCH  31  33
ENDBRANCH  26  27
ENDBRANCH  25  26
ENDBRANCH   3  25
TORSDOF 10
ENDMDL
MODEL 5
REMARK VINA RESULT:    -7.901      3.584      6.872
REMARK INTER + INTRA:         -14.214
REMARK INTER:                 -12.615
REMARK INTRA:                  -1.599
REMARK UNBOUND:                -1.694
REMARK  Name = 
REMARK  13 active torsions:
REMARK  status: ('A' for Active; 'I' for Inactive)
REMARK    1  A    between atoms: C_1  and  C_2
REMARK    2  A    between atoms: C_2  and  C_3
REMARK    3  A    between atoms: C_2  and  C_4
REMARK    4  A    between atoms: C_6  and  O_7
REMARK    5  A    between atoms: O_7  and  C_8
REMARK    6  A    between atoms: C_8  and  C_9
REMARK    7  A    between atoms: C_13  and  C_14
REMARK    8  A    between atoms: C_19  and  C_20
REMARK    9  A    between atoms: C_20  and  C_21
REMARK   10  A    between atoms: C_20  and  C_22
REMARK   11  A    between atoms: C_22  and  O_23
REMARK   12  A    between atoms: O_23  and  C_24
REMARK   13  A    between atoms: C_28  and  C_29
REMARK                            x       y       z     vdW  Elec       q    Type
REMARK                         _______ _______ _______ _____ _____    ______ ____
ROOT
ATOM      1  C   UNL     1      47.167   6.935  12.365  0.00  0.00    +0.000 A 
ATOM      2  C   UNL     1      46.549   8.172  12.123  0.00  0.00    +0.000 A 
ATOM      3  C   UNL     1      45.168   8.239  11.902  0.00  0.00    +0.000 A 
ATOM      4  C   UNL     1      44.390   7.086  11.994  0.00  0.00    +0.000 A 
ATOM      5  C   UNL     1      44.976   5.839  12.209  0.00  0.00    +0.000 A 
ATOM      6  C   UNL     1      46.356   5.794  12.428  0.00  0.00    +0.000 A 
ENDROOT
BRANCH   1   8
ATOM      7  C   UNL     1      49.402   7.728  11.530  0.00  0.00    +0.000 C 
ATOM      8  C   UNL     1      48.678   6.815  12.518  0.00  0.00    +0.000 C 
ATOM      9  C   UNL     1      49.175   7.109  13.946  0.00  0.00    +0.000 C 
ENDBRANCH   1   8
BRANCH   5  10
ATOM     10  C   UNL     1      44.101   4.597  12.139  0.00  0.00    +0.000 C 
ATOM     11  C   UNL     1      43.056   4.628  13.268  0.00  0.00    +0.000 C 
BRANCH  10  12
ATOM     12  C   UNL     1      43.368   4.410  10.802  0.00  0.00    +0.000 C 
BRANCH  12  13
ATOM     13  O   UNL     1      43.839   3.217  10.165  0.00  0.00    +0.000 OA
BRANCH  13  14
ATOM     14  C   UNL     1      44.841   3.378   9.251  0.00  0.00    +0.000 A 
ATOM     15  C   UNL     1      45.327   4.613   8.806  0.00  0.00    +0.000 A 
ATOM     16  C   UNL     1      46.334   4.664   7.846  0.00  0.00    +0.000 A 
ATOM     17  C   UNL     1      46.872   3.486   7.338  0.00  0.00    +0.000 A 
ATOM     18  C   UNL     1      46.416   2.245   7.801  0.00  0.00    +0.000 A 
ATOM     19  C   UNL     1      45.383   2.194   8.745  0.00  0.00    +0.000 A 
BRANCH  18  20
ATOM     20  C   UNL     1      47.068   1.026   7.259  0.00  0.00    +0.000 C 
ATOM     21  N   UNL     1      46.651  -0.183   7.743  0.00  0.00    +0.000 N 
ATOM     22  O   UNL     1      47.987   1.093   6.453  0.00  0.00    +0.000 OA
ATOM     23  H   UNL     1      46.050  -0.275   8.549  0.00  0.00    +0.000 HD
ATOM     24  H   UNL     1      47.201  -0.986   7.469  0.00  0.00    +0.000 HD
ENDBRANCH  18  20
ENDBRANCH  13  14
ENDBRANCH  12  13
ENDBRANCH  10  12
ENDBRANCH   5  10
BRANCH   3  25
ATOM     25  O   UNL     1      44.650   9.460  11.549  0.00  0.00    +0.000 OA
BRANCH  25  26
ATOM     26  C   UNL     1      43.571   9.379  10.610  0.00  0.00    +0.000 C 
BRANCH  26  27
ATOM     27  C   UNL     1      42.525  10.401  10.966  0.00  0.00    +0.000 A 
ATOM     28  C   UNL     1      42.890  11.730  11.189  0.00  0.00    +0.000 A 
ATOM     29  C   UNL     1      41.914  12.681  11.483  0.00  0.00    +0.000 A 
ATOM     30  C   UNL     1      40.571  12.309  11.536  0.00  0.00    +0.000 A 
ATOM     31  C   UNL     1      40.195  10.981  11.307  0.00  0.00    +0.000 A 
ATOM     32  C   UNL     1      41.178  10.024  11.051  0.00  0.00    +0.000 A 
BRANCH  31  33
ATOM     33  C   UNL     1      38.751  10.635  11.328  0.00  0.00    +0.000 C 
ATOM     34  N   UNL     1      38.412   9.333  11.063  0.00  0.00    +0.000 N 
ATOM     35  O   UNL     1      37.885  11.482  11.525  0.00  0.00    +0.000 OA
ATOM     36  H   UNL     1      39.059   8.681  10.647  0.00  0.00    +0.000 HD
ATOM     37  H   UNL     1      37.423   9.151  10.944  0.00  0.00    +0.000 HD
ENDBRANCH  31  33
ENDBRANCH  26  27
ENDBRANCH  25  26
ENDBRANCH   3  25
TORSDOF 10
ENDMDL
MODEL 6
REMARK VINA RESULT:    -7.697      2.029      3.235
REMARK INTER + INTRA:         -13.892
REMARK INTER:                 -12.194
REMARK INTRA:                  -1.698
REMARK UNBOUND:                -1.694
REMARK  Name = 
REMARK  13 active torsions:
REMARK  status: ('A' for Active; 'I' for Inactive)
REMARK    1  A    between atoms: C_1  and  C_2
REMARK    2  A    between atoms: C_2  and  C_3
REMARK    3  A    between atoms: C_2  and  C_4
REMARK    4  A    between atoms: C_6  and  O_7
REMARK    5  A    between atoms: O_7  and  C_8
REMARK    6  A    between atoms: C_8  and  C_9
REMARK    7  A    between atoms: C_13  and  C_14
REMARK    8  A    between atoms: C_19  and  C_20
REMARK    9  A    between atoms: C_20  and  C_21
REMARK   10  A    between atoms: C_20  and  C_22
REMARK   11  A    between atoms: C_22  and  O_23
REMARK   12  A    between atoms: O_23  and  C_24
REMARK   13  A    between atoms: C_28  and  C_29
REMARK                            x       y       z     vdW  Elec       q    Type
REMARK                         _______ _______ _______ _____ _____    ______ ____
ROOT
ATOM      1  C   UNL     1      47.841   6.809  13.459  0.00  0.00    +0.000 A 
ATOM      2  C   UNL     1      47.937   5.601  14.167  0.00  0.00    +0.000 A 
ATOM      3  C   UNL     1      46.865   4.700  14.173  0.00  0.00    +0.000 A 
ATOM      4  C   UNL     1      45.725   4.966  13.416  0.00  0.00    +0.000 A 
ATOM      5  C   UNL     1      45.588   6.168  12.722  0.00  0.00    +0.000 A 
ATOM      6  C   UNL     1      46.670   7.054  12.729  0.00  0.00    +0.000 A 
ENDROOT
BRANCH   1   8
ATOM      7  C   UNL     1      49.881   7.605  14.694  0.00  0.00    +0.000 C 
ATOM      8  C   UNL     1      48.950   7.852  13.508  0.00  0.00    +0.000 C 
ATOM      9  C   UNL     1      49.779   7.924  12.212  0.00  0.00    +0.000 C 
ENDBRANCH   1   8
BRANCH   5  10
ATOM     10  C   UNL     1      44.261   6.477  12.047  0.00  0.00    +0.000 C 
ATOM     11  C   UNL     1      44.340   7.839  11.335  0.00  0.00    +0.000 C 
BRANCH  10  12
ATOM     12  C   UNL     1      43.804   5.422  11.029  0.00  0.00    +0.000 C 
BRANCH  12  13
ATOM     13  O   UNL     1      44.755   5.350   9.960  0.00  0.00    +0.000 OA
BRANCH  13  14
ATOM     14  C   UNL     1      44.992   4.107   9.447  0.00  0.00    +0.000 A 
ATOM     15  C   UNL     1      44.382   2.928   9.893  0.00  0.00    +0.000 A 
ATOM     16  C   UNL     1      44.719   1.706   9.319  0.00  0.00    +0.000 A 
ATOM     17  C   UNL     1      45.651   1.654   8.288  0.00  0.00    +0.000 A 
ATOM     18  C   UNL     1      46.242   2.831   7.812  0.00  0.00    +0.000 A 
ATOM     19  C   UNL     1      45.926   4.057   8.409  0.00  0.00    +0.000 A 
BRANCH  18  20
ATOM     20  C   UNL     1      47.189   2.715   6.673  0.00  0.00    +0.000 C 
ATOM     21  N   UNL     1      46.973   3.518   5.588  0.00  0.00    +0.000 N 
ATOM     22  O   UNL     1      48.095   1.892   6.673  0.00  0.00    +0.000 OA
ATOM     23  H   UNL     1      46.129   4.056   5.460  0.00  0.00    +0.000 HD
ATOM     24  H   UNL     1      47.539   3.324   4.772  0.00  0.00    +0.000 HD
ENDBRANCH  18  20
ENDBRANCH  13  14
ENDBRANCH  12  13
ENDBRANCH  10  12
ENDBRANCH   5  10
BRANCH   3  25
ATOM     25  O   UNL     1      46.978   3.598  14.984  0.00  0.00    +0.000 OA
BRANCH  25  26
ATOM     26  C   UNL     1      47.102   3.916  16.375  0.00  0.00    +0.000 C 
BRANCH  26  27
ATOM     27  C   UNL     1      48.499   3.596  16.836  0.00  0.00    +0.000 A 
ATOM     28  C   UNL     1      49.017   2.311  16.661  0.00  0.00    +0.000 A 
ATOM     29  C   UNL     1      50.324   2.028  17.056  0.00  0.00    +0.000 A 
ATOM     30  C   UNL     1      51.120   3.032  17.607  0.00  0.00    +0.000 A 
ATOM     31  C   UNL     1      50.611   4.324  17.778  0.00  0.00    +0.000 A 
ATOM     32  C   UNL     1      49.291   4.595  17.418  0.00  0.00    +0.000 A 
BRANCH  31  33
ATOM     33  C   UNL     1      51.505   5.376  18.326  0.00  0.00    +0.000 C 
ATOM     34  N   UNL     1      52.378   5.006  19.317  0.00  0.00    +0.000 N 
ATOM     35  O   UNL     1      51.439   6.541  17.950  0.00  0.00    +0.000 OA
ATOM     36  H   UNL     1      52.281   4.141  19.826  0.00  0.00    +0.000 HD
ATOM     37  H   UNL     1      52.874   5.763  19.771  0.00  0.00    +0.000 HD
ENDBRANCH  31  33
ENDBRANCH  26  27
ENDBRANCH  25  26
ENDBRANCH   3  25
TORSDOF 10
ENDMDL
MODEL 7
REMARK VINA RESULT:    -7.606      1.784      2.435
REMARK INTER + INTRA:         -13.747
REMARK INTER:                 -12.345
REMARK INTRA:                  -1.401
REMARK UNBOUND:                -1.694
REMARK  Name = 
REMARK  13 active torsions:
REMARK  status: ('A' for Active; 'I' for Inactive)
REMARK    1  A    between atoms: C_1  and  C_2
REMARK    2  A    between atoms: C_2  and  C_3
REMARK    3  A    between atoms: C_2  and  C_4
REMARK    4  A    between atoms: C_6  and  O_7
REMARK    5  A    between atoms: O_7  and  C_8
REMARK    6  A    between atoms: C_8  and  C_9
REMARK    7  A    between atoms: C_13  and  C_14
REMARK    8  A    between atoms: C_19  and  C_20
REMARK    9  A    between atoms: C_20  and  C_21
REMARK   10  A    between atoms: C_20  and  C_22
REMARK   11  A    between atoms: C_22  and  O_23
REMARK   12  A    between atoms: O_23  and  C_24
REMARK   13  A    between atoms: C_28  and  C_29
REMARK                            x       y       z     vdW  Elec       q    Type
REMARK                         _______ _______ _______ _____ _____    ______ ____
ROOT
ATOM      1  C   UNL     1      47.787   8.620  12.313  0.00  0.00    +0.000 A 
ATOM      2  C   UNL     1      48.717   8.288  13.312  0.00  0.00    +0.000 A 
ATOM      3  C   UNL     1      48.732   7.001  13.862  0.00  0.00    +0.000 A 
ATOM      4  C   UNL     1      47.871   6.021  13.369  0.00  0.00    +0.000 A 
ATOM      5  C   UNL     1      46.919   6.324  12.396  0.00  0.00    +0.000 A 
ATOM      6  C   UNL     1      46.922   7.616  11.859  0.00  0.00    +0.000 A 
ENDROOT
BRANCH   1   8
ATOM      7  C   UNL     1      46.238  10.532  11.799  0.00  0.00    +0.000 C 
ATOM      8  C   UNL     1      47.682  10.035  11.759  0.00  0.00    +0.000 C 
ATOM      9  C   UNL     1      48.592  11.045  12.484  0.00  0.00    +0.000 C 
ENDBRANCH   1   8
BRANCH   5  10
ATOM     10  C   UNL     1      45.900   5.263  12.012  0.00  0.00    +0.000 C 
ATOM     11  C   UNL     1      45.295   4.636  13.280  0.00  0.00    +0.000 C 
BRANCH  10  12
ATOM     12  C   UNL     1      44.754   5.773  11.126  0.00  0.00    +0.000 C 
BRANCH  12  13
ATOM     13  O   UNL     1      45.122   5.637   9.748  0.00  0.00    +0.000 OA
BRANCH  13  14
ATOM     14  C   UNL     1      45.236   4.360   9.279  0.00  0.00    +0.000 A 
ATOM     15  C   UNL     1      44.482   3.270   9.731  0.00  0.00    +0.000 A 
ATOM     16  C   UNL     1      44.700   2.001   9.204  0.00  0.00    +0.000 A 
ATOM     17  C   UNL     1      45.660   1.813   8.214  0.00  0.00    +0.000 A 
ATOM     18  C   UNL     1      46.398   2.902   7.732  0.00  0.00    +0.000 A 
ATOM     19  C   UNL     1      46.198   4.174   8.283  0.00  0.00    +0.000 A 
BRANCH  18  20
ATOM     20  C   UNL     1      47.369   2.646   6.638  0.00  0.00    +0.000 C 
ATOM     21  N   UNL     1      47.058   3.119   5.393  0.00  0.00    +0.000 N 
ATOM     22  O   UNL     1      48.383   1.986   6.820  0.00  0.00    +0.000 OA
ATOM     23  H   UNL     1      46.147   3.484   5.155  0.00  0.00    +0.000 HD
ATOM     24  H   UNL     1      47.658   2.814   4.639  0.00  0.00    +0.000 HD
ENDBRANCH  18  20
ENDBRANCH  13  14
ENDBRANCH  12  13
ENDBRANCH  10  12
ENDBRANCH   5  10
BRANCH   3  25
ATOM     25  O   UNL     1      49.582   6.782  14.917  0.00  0.00    +0.000 OA
BRANCH  25  26
ATOM     26  C   UNL     1      49.030   7.148  16.188  0.00  0.00    +0.000 C 
BRANCH  26  27
ATOM     27  C   UNL     1      48.953   5.928  17.066  0.00  0.00    +0.000 A 
ATOM     28  C   UNL     1      48.011   5.862  18.095  0.00  0.00    +0.000 A 
ATOM     29  C   UNL     1      47.919   4.716  18.883  0.00  0.00    +0.000 A 
ATOM     30  C   UNL     1      48.753   3.627  18.631  0.00  0.00    +0.000 A 
ATOM     31  C   UNL     1      49.694   3.681  17.597  0.00  0.00    +0.000 A 
ATOM     32  C   UNL     1      49.811   4.844  16.835  0.00  0.00    +0.000 A 
BRANCH  31  33
ATOM     33  C   UNL     1      50.533   2.484  17.333  0.00  0.00    +0.000 C 
ATOM     34  N   UNL     1      51.704   2.369  18.035  0.00  0.00    +0.000 N 
ATOM     35  O   UNL     1      50.223   1.651  16.486  0.00  0.00    +0.000 OA
ATOM     36  H   UNL     1      52.113   3.144  18.534  0.00  0.00    +0.000 HD
ATOM     37  H   UNL     1      52.324   1.624  17.740  0.00  0.00    +0.000 HD
ENDBRANCH  31  33
ENDBRANCH  26  27
ENDBRANCH  25  26
ENDBRANCH   3  25
TORSDOF 10
ENDMDL
MODEL 8
REMARK VINA RESULT:    -7.514      3.451      7.073
REMARK INTER + INTRA:         -13.601
REMARK INTER:                 -12.004
REMARK INTRA:                  -1.597
REMARK UNBOUND:                -1.694
REMARK  Name = 
REMARK  13 active torsions:
REMARK  status: ('A' for Active; 'I' for Inactive)
REMARK    1  A    between atoms: C_1  and  C_2
REMARK    2  A    between atoms: C_2  and  C_3
REMARK    3  A    between atoms: C_2  and  C_4
REMARK    4  A    between atoms: C_6  and  O_7
REMARK    5  A    between atoms: O_7  and  C_8
REMARK    6  A    between atoms: C_8  and  C_9
REMARK    7  A    between atoms: C_13  and  C_14
REMARK    8  A    between atoms: C_19  and  C_20
REMARK    9  A    between atoms: C_20  and  C_21
REMARK   10  A    between atoms: C_20  and  C_22
REMARK   11  A    between atoms: C_22  and  O_23
REMARK   12  A    between atoms: O_23  and  C_24
REMARK   13  A    between atoms: C_28  and  C_29
REMARK                            x       y       z     vdW  Elec       q    Type
REMARK                         _______ _______ _______ _____ _____    ______ ____
ROOT
ATOM      1  C   UNL     1      46.559   7.538  12.557  0.00  0.00    +0.000 A 
ATOM      2  C   UNL     1      45.784   8.556  11.978  0.00  0.00    +0.000 A 
ATOM      3  C   UNL     1      44.505   8.273  11.484  0.00  0.00    +0.000 A 
ATOM      4  C   UNL     1      43.967   6.996  11.630  0.00  0.00    +0.000 A 
ATOM      5  C   UNL     1      44.720   5.957  12.177  0.00  0.00    +0.000 A 
ATOM      6  C   UNL     1      45.995   6.261  12.665  0.00  0.00    +0.000 A 
ENDROOT
BRANCH   1   8
ATOM      7  C   UNL     1      48.100   7.667  14.539  0.00  0.00    +0.000 C 
ATOM      8  C   UNL     1      47.988   7.791  13.020  0.00  0.00    +0.000 C 
ATOM      9  C   UNL     1      49.021   6.863  12.353  0.00  0.00    +0.000 C 
ENDBRANCH   1   8
BRANCH   5  10
ATOM     10  C   UNL     1      44.145   4.549  12.163  0.00  0.00    +0.000 C 
ATOM     11  C   UNL     1      43.242   4.341  13.392  0.00  0.00    +0.000 C 
BRANCH  10  12
ATOM     12  C   UNL     1      43.339   4.203  10.902  0.00  0.00    +0.000 C 
BRANCH  12  13
ATOM     13  O   UNL     1      43.897   3.036  10.288  0.00  0.00    +0.000 OA
BRANCH  13  14
ATOM     14  C   UNL     1      44.844   3.254   9.329  0.00  0.00    +0.000 A 
ATOM     15  C   UNL     1      45.239   4.515   8.867  0.00  0.00    +0.000 A 
ATOM     16  C   UNL     1      46.196   4.625   7.862  0.00  0.00    +0.000 A 
ATOM     17  C   UNL     1      46.775   3.479   7.324  0.00  0.00    +0.000 A 
ATOM     18  C   UNL     1      46.410   2.214   7.801  0.00  0.00    +0.000 A 
ATOM     19  C   UNL     1      45.427   2.103   8.792  0.00  0.00    +0.000 A 
BRANCH  18  20
ATOM     20  C   UNL     1      47.103   1.035   7.224  0.00  0.00    +0.000 C 
ATOM     21  N   UNL     1      46.758  -0.199   7.703  0.00  0.00    +0.000 N 
ATOM     22  O   UNL     1      47.993   1.156   6.393  0.00  0.00    +0.000 OA
ATOM     23  H   UNL     1      46.185  -0.330   8.524  0.00  0.00    +0.000 HD
ATOM     24  H   UNL     1      47.337  -0.971   7.402  0.00  0.00    +0.000 HD
ENDBRANCH  18  20
ENDBRANCH  13  14
ENDBRANCH  12  13
ENDBRANCH  10  12
ENDBRANCH   5  10
BRANCH   3  25
ATOM     25  O   UNL     1      43.853   9.284  10.822  0.00  0.00    +0.000 OA
BRANCH  25  26
ATOM     26  C   UNL     1      44.249  10.596  11.239  0.00  0.00    +0.000 C 
BRANCH  26  27
ATOM     27  C   UNL     1      44.911  11.305  10.088  0.00  0.00    +0.000 A 
ATOM     28  C   UNL     1      46.119  11.978  10.280  0.00  0.00    +0.000 A 
ATOM     29  C   UNL     1      46.747  12.603   9.204  0.00  0.00    +0.000 A 
ATOM     30  C   UNL     1      46.181  12.538   7.931  0.00  0.00    +0.000 A 
ATOM     31  C   UNL     1      44.975  11.858   7.728  0.00  0.00    +0.000 A 
ATOM     32  C   UNL     1      44.328  11.267   8.814  0.00  0.00    +0.000 A 
BRANCH  31  33
ATOM     33  C   UNL     1      44.427  11.774   6.350  0.00  0.00    +0.000 C 
ATOM     34  N   UNL     1      43.707  10.654   6.027  0.00  0.00    +0.000 N 
ATOM     35  O   UNL     1      44.646  12.644   5.513  0.00  0.00    +0.000 OA
ATOM     36  H   UNL     1      43.728   9.817   6.590  0.00  0.00    +0.000 HD
ATOM     37  H   UNL     1      43.465  10.552   5.049  0.00  0.00    +0.000 HD
ENDBRANCH  31  33
ENDBRANCH  26  27
ENDBRANCH  25  26
ENDBRANCH   3  25
TORSDOF 10
ENDMDL
MODEL 9
REMARK VINA RESULT:    -7.248      2.512      8.339
REMARK INTER + INTRA:         -13.179
REMARK INTER:                 -11.373
REMARK INTRA:                  -1.806
REMARK UNBOUND:                -1.694
REMARK  Name = 
REMARK  13 active torsions:
REMARK  status: ('A' for Active; 'I' for Inactive)
REMARK    1  A    between atoms: C_1  and  C_2
REMARK    2  A    between atoms: C_2  and  C_3
REMARK    3  A    between atoms: C_2  and  C_4
REMARK    4  A    between atoms: C_6  and  O_7
REMARK    5  A    between atoms: O_7  and  C_8
REMARK    6  A    between atoms: C_8  and  C_9
REMARK    7  A    between atoms: C_13  and  C_14
REMARK    8  A    between atoms: C_19  and  C_20
REMARK    9  A    between atoms: C_20  and  C_21
REMARK   10  A    between atoms: C_20  and  C_22
REMARK   11  A    between atoms: C_22  and  O_23
REMARK   12  A    between atoms: O_23  and  C_24
REMARK   13  A    between atoms: C_28  and  C_29
REMARK                            x       y       z     vdW  Elec       q    Type
REMARK                         _______ _______ _______ _____ _____    ______ ____
ROOT
ATOM      1  C   UNL     1      50.058   8.176  12.629  0.00  0.00    +0.000 A 
ATOM      2  C   UNL     1      48.738   7.700  12.614  0.00  0.00    +0.000 A 
ATOM      3  C   UNL     1      48.169   7.161  13.774  0.00  0.00    +0.000 A 
ATOM      4  C   UNL     1      48.887   7.161  14.969  0.00  0.00    +0.000 A 
ATOM      5  C   UNL     1      50.209   7.604  15.013  0.00  0.00    +0.000 A 
ATOM      6  C   UNL     1      50.758   8.139  13.843  0.00  0.00    +0.000 A 
ENDROOT
BRANCH   1   8
ATOM      7  C   UNL     1      51.617   9.895  11.664  0.00  0.00    +0.000 C 
ATOM      8  C   UNL     1      50.738   8.683  11.364  0.00  0.00    +0.000 C 
ATOM      9  C   UNL     1      51.575   7.608  10.646  0.00  0.00    +0.000 C 
ENDBRANCH   1   8
BRANCH   5  10
ATOM     10  C   UNL     1      50.997   7.431  16.301  0.00  0.00    +0.000 C 
ATOM     11  C   UNL     1      52.292   8.260  16.238  0.00  0.00    +0.000 C 
BRANCH  10  12
ATOM     12  C   UNL     1      50.231   7.823  17.573  0.00  0.00    +0.000 C 
BRANCH  12  13
ATOM     13  O   UNL     1      50.222   6.716  18.483  0.00  0.00    +0.000 OA
BRANCH  13  14
ATOM     14  C   UNL     1      49.403   5.674  18.154  0.00  0.00    +0.000 A 
ATOM     15  C   UNL     1      48.004   5.712  18.193  0.00  0.00    +0.000 A 
ATOM     16  C   UNL     1      47.264   4.580  17.866  0.00  0.00    +0.000 A 
ATOM     17  C   UNL     1      47.913   3.410  17.484  0.00  0.00    +0.000 A 
ATOM     18  C   UNL     1      49.311   3.371  17.411  0.00  0.00    +0.000 A 
ATOM     19  C   UNL     1      50.057   4.501  17.768  0.00  0.00    +0.000 A 
BRANCH  18  20
ATOM     20  C   UNL     1      49.941   2.110  16.944  0.00  0.00    +0.000 C 
ATOM     21  N   UNL     1      50.954   1.591  17.702  0.00  0.00    +0.000 N 
ATOM     22  O   UNL     1      49.613   1.579  15.892  0.00  0.00    +0.000 OA
ATOM     23  H   UNL     1      51.392   2.098  18.457  0.00  0.00    +0.000 HD
ATOM     24  H   UNL     1      51.461   0.816  17.296  0.00  0.00    +0.000 HD
ENDBRANCH  18  20
ENDBRANCH  13  14
ENDBRANCH  12  13
ENDBRANCH  10  12
ENDBRANCH   5  10
BRANCH   3  25
ATOM     25  O   UNL     1      46.920   6.602  13.657  0.00  0.00    +0.000 OA
BRANCH  25  26
ATOM     26  C   UNL     1      46.127   7.177  12.611  0.00  0.00    +0.000 C 
BRANCH  26  27
ATOM     27  C   UNL     1      45.309   6.095  11.958  0.00  0.00    +0.000 A 
ATOM     28  C   UNL     1      44.201   5.560  12.618  0.00  0.00    +0.000 A 
ATOM     29  C   UNL     1      43.424   4.584  11.996  0.00  0.00    +0.000 A 
ATOM     30  C   UNL     1      43.740   4.157  10.706  0.00  0.00    +0.000 A 
ATOM     31  C   UNL     1      44.844   4.694  10.035  0.00  0.00    +0.000 A 
ATOM     32  C   UNL     1      45.643   5.642  10.675  0.00  0.00    +0.000 A 
BRANCH  31  33
ATOM     33  C   UNL     1      45.121   4.245   8.646  0.00  0.00    +0.000 C 
ATOM     34  N   UNL     1      44.308   3.272   8.125  0.00  0.00    +0.000 N 
ATOM     35  O   UNL     1      46.067   4.686   8.001  0.00  0.00    +0.000 OA
ATOM     36  H   UNL     1      43.701   2.710   8.702  0.00  0.00    +0.000 HD
ATOM     37  H   UNL     1      44.600   2.884   7.237  0.00  0.00    +0.000 HD
ENDBRANCH  31  33
ENDBRANCH  26  27
ENDBRANCH  25  26
ENDBRANCH   3  25
TORSDOF 10
ENDMDL
