MODEL 1
REMARK VINA RESULT:    -7.713      0.000      0.000
REMARK INTER + INTRA:         -10.367
REMARK INTER:                  -9.517
REMARK INTRA:                  -0.850
REMARK UNBOUND:                -0.850
REMARK  Name = 
REMARK  5 active torsions:
REMARK  status: ('A' for Active; 'I' for Inactive)
REMARK    1  A    between atoms: C_1  and  C_2
REMARK    2  A    between atoms: C_7  and  N_8
REMARK    3  A    between atoms: N_8  and  C_9
REMARK    4  A    between atoms: C_9  and  C_10
REMARK    5  A    between atoms: C_14  and  C_15
REMARK                            x       y       z     vdW  Elec       q    Type
REMARK                         _______ _______ _______ _____ _____    ______ ____
ROOT
ATOM      1  C   UNL     1      46.290   7.126  12.603  0.00  0.00    +0.000 C 
ATOM      2  C   UNL     1      46.729   8.401  11.860  0.00  0.00    +0.000 C 
ATOM      3  C   UNL     1      45.794   8.501  13.006  0.00  0.00    +0.000 C 
ENDROOT
BRANCH   1   4
ATOM      4  C   UNL     1      45.292   6.234  11.850  0.00  0.00    +0.000 A 
ATOM      5  C   UNL     1      43.907   6.408  11.960  0.00  0.00    +0.000 A 
ATOM      6  C   UNL     1      43.024   5.657  11.182  0.00  0.00    +0.000 A 
ATOM      7  C   UNL     1      43.511   4.724  10.261  0.00  0.00    +0.000 A 
ATOM      8  C   UNL     1      44.890   4.513  10.105  0.00  0.00    +0.000 A 
ATOM      9  C   UNL     1      45.744   5.244  10.950  0.00  0.00    +0.000 A 
BRANCH   8  10
ATOM     10  C   UNL     1      45.446   3.656   9.029  0.00  0.00    +0.000 A 
ATOM     11  C   UNL     1      46.112   4.223   7.927  0.00  0.00    +0.000 A 
ATOM     12  C   UNL     1      46.746   3.428   6.964  0.00  0.00    +0.000 A 
ATOM     13  C   UNL     1      46.735   2.043   7.085  0.00  0.00    +0.000 A 
ATOM     14  C   UNL     1      46.071   1.452   8.156  0.00  0.00    +0.000 A 
ATOM     15  C   UNL     1      45.424   2.250   9.109  0.00  0.00    +0.000 A 
ENDBRANCH   8  10
ENDBRANCH   1   4
BRANCH   1  16
ATOM     16  N   UNL     1      47.416   6.382  13.154  0.00  0.00    +0.000 N 
ATOM     17  H   UNL     1      48.224   6.270  12.544  0.00  0.00    +0.000 HD
BRANCH  16  24
ATOM     18  C   UNL     1      46.521   3.360  13.406  0.00  0.00    +0.000 C 
ATOM     19  C   UNL     1      47.224   4.200  14.415  0.00  0.00    +0.000 A 
ATOM     20  N   UNL     1      47.434   3.541  15.600  0.00  0.00    +0.000 NA
ATOM     21  C   UNL     1      48.065   4.223  16.572  0.00  0.00    +0.000 A 
ATOM     22  C   UNL     1      48.496   5.513  16.378  0.00  0.00    +0.000 A 
ATOM     23  N   UNL     1      48.282   6.176  15.223  0.00  0.00    +0.000 NA
ATOM     24  C   UNL     1      47.623   5.526  14.222  0.00  0.00    +0.000 A 
ENDBRANCH  16  24
ENDBRANCH   1  16
TORSDOF 4
ENDMDL
MODEL 2
REMARK VINA RESULT:    -7.570      2.793      5.058
REMARK INTER + INTRA:         -10.190
REMARK INTER:                  -9.199
REMARK INTRA:                  -0.990
REMARK UNBOUND:                -0.850
REMARK  Name = 
REMARK  5 active torsions:
REMARK  status: ('A' for Active; 'I' for Inactive)
REMARK    1  A    between atoms: C_1  and  C_2
REMARK    2  A    between atoms: C_7  and  N_8
REMARK    3  A    between atoms: N_8  and  C_9
REMARK    4  A    between atoms: C_9  and  C_10
REMARK    5  A    between atoms: C_14  and  C_15
REMARK                            x       y       z     vdW  Elec       q    Type
REMARK                         _______ _______ _______ _____ _____    ______ ____
ROOT
ATOM      1  C   UNL     1      45.606   7.576  11.944  0.00  0.00    +0.000 C 
ATOM      2  C   UNL     1      46.557   7.433  13.147  0.00  0.00    +0.000 C 
ATOM      3  C   UNL     1      47.113   7.590  11.782  0.00  0.00    +0.000 C 
ENDROOT
BRANCH   1   4
ATOM      4  C   UNL     1      44.886   6.288  11.517  0.00  0.00    +0.000 A 
ATOM      5  C   UNL     1      43.580   5.995  11.927  0.00  0.00    +0.000 A 
ATOM      6  C   UNL     1      42.907   4.873  11.438  0.00  0.00    +0.000 A 
ATOM      7  C   UNL     1      43.525   4.026  10.513  0.00  0.00    +0.000 A 
ATOM      8  C   UNL     1      44.831   4.275  10.064  0.00  0.00    +0.000 A 
ATOM      9  C   UNL     1      45.497   5.379  10.626  0.00  0.00    +0.000 A 
BRANCH   8  10
ATOM     10  C   UNL     1      45.456   3.496   8.966  0.00  0.00    +0.000 A 
ATOM     11  C   UNL     1      46.103   4.146   7.898  0.00  0.00    +0.000 A 
ATOM     12  C   UNL     1      46.799   3.430   6.917  0.00  0.00    +0.000 A 
ATOM     13  C   UNL     1      46.873   2.043   6.986  0.00  0.00    +0.000 A 
ATOM     14  C   UNL     1      46.231   1.371   8.022  0.00  0.00    +0.000 A 
ATOM     15  C   UNL     1      45.521   2.090   8.992  0.00  0.00    +0.000 A 
ENDBRANCH   8  10
ENDBRANCH   1   4
BRANCH   1  16
ATOM     16  N   UNL     1      44.707   8.716  12.071  0.00  0.00    +0.000 N 
ATOM     17  H   UNL     1      44.018   8.665  12.819  0.00  0.00    +0.000 HD
BRANCH  16  24
ATOM     18  C   UNL     1      46.263  11.434  11.650  0.00  0.00    +0.000 C 
ATOM     19  C   UNL     1      44.950  11.027  11.079  0.00  0.00    +0.000 A 
ATOM     20  N   UNL     1      44.368  12.018  10.329  0.00  0.00    +0.000 NA
ATOM     21  C   UNL     1      43.176  11.738   9.771  0.00  0.00    +0.000 A 
ATOM     22  C   UNL     1      42.582  10.510   9.931  0.00  0.00    +0.000 A 
ATOM     23  N   UNL     1      43.137   9.534  10.678  0.00  0.00    +0.000 NA
ATOM     24  C   UNL     1      44.334   9.789  11.280  0.00  0.00    +0.000 A 
ENDBRANCH  16  24
ENDBRANCH   1  16
TORSDOF 4
ENDMDL
MODEL 3
REMARK VINA RESULT:    -7.303      2.712      6.374
REMARK INTER + INTRA:          -9.861
REMARK INTER:                  -9.388
REMARK INTRA:                  -0.473
REMARK UNBOUND:                -0.850
REMARK  Name = 
REMARK  5 active torsions:
REMARK  status: ('A' for Active; 'I' for Inactive)
REMARK    1  A    between atoms: C_1  and  C_2
REMARK    2  A    between atoms: C_7  and  N_8
REMARK    3  A    between atoms: N_8  and  C_9
REMARK    4  A    between atoms: C_9  and  C_10
REMARK    5  A    between atoms: C_14  and  C_15
REMARK                            x       y       z     vdW  Elec       q    Type
REMARK                         _______ _______ _______ _____ _____    ______ ____
ROOT
ATOM      1  C   UNL     1      43.926   5.007  10.909  0.00  0.00    +0.000 C 
ATOM      2  C   UNL     1      42.894   3.978  11.407  0.00  0.00    +0.000 C 
ATOM      3  C   UNL     1      42.594   5.427  11.498  0.00  0.00    +0.000 C 
ENDROOT
BRANCH   1   4
ATOM      4  C   UNL     1      45.158   5.192  11.808  0.00  0.00    +0.000 A 
ATOM      5  C   UNL     1      45.627   4.174  12.646  0.00  0.00    +0.000 A 
ATOM      6  C   UNL     1      46.812   4.327  13.371  0.00  0.00    +0.000 A 
ATOM      7  C   UNL     1      47.562   5.502  13.258  0.00  0.00    +0.000 A 
ATOM      8  C   UNL     1      47.141   6.552  12.427  0.00  0.00    +0.000 A 
ATOM      9  C   UNL     1      45.913   6.384  11.763  0.00  0.00    +0.000 A 
BRANCH   8  10
ATOM     10  C   UNL     1      47.989   7.740  12.157  0.00  0.00    +0.000 A 
ATOM     11  C   UNL     1      49.343   7.593  11.802  0.00  0.00    +0.000 A 
ATOM     12  C   UNL     1      50.127   8.691  11.428  0.00  0.00    +0.000 A 
ATOM     13  C   UNL     1      49.571   9.966  11.393  0.00  0.00    +0.000 A 
ATOM     14  C   UNL     1      48.238  10.144  11.753  0.00  0.00    +0.000 A 
ATOM     15  C   UNL     1      47.462   9.045  12.142  0.00  0.00    +0.000 A 
ENDBRANCH   8  10
ENDBRANCH   1   4
BRANCH   1  16
ATOM     16  N   UNL     1      44.268   4.824   9.505  0.00  0.00    +0.000 N 
ATOM     17  H   UNL     1      43.637   5.248   8.827  0.00  0.00    +0.000 HD
BRANCH  16  24
ATOM     18  C   UNL     1      44.291   1.663   9.479  0.00  0.00    +0.000 C 
ATOM     19  C   UNL     1      45.193   2.596   8.749  0.00  0.00    +0.000 A 
ATOM     20  N   UNL     1      46.167   1.944   8.037  0.00  0.00    +0.000 NA
ATOM     21  C   UNL     1      47.030   2.709   7.344  0.00  0.00    +0.000 A 
ATOM     22  C   UNL     1      46.925   4.078   7.335  0.00  0.00    +0.000 A 
ATOM     23  N   UNL     1      45.981   4.731   8.043  0.00  0.00    +0.000 NA
ATOM     24  C   UNL     1      45.103   3.991   8.779  0.00  0.00    +0.000 A 
ENDBRANCH  16  24
ENDBRANCH   1  16
TORSDOF 4
ENDMDL
MODEL 4
REMARK VINA RESULT:    -6.678      1.355      2.133
REMARK INTER + INTRA:          -9.089
REMARK INTER:                  -8.056
REMARK INTRA:                  -1.034
REMARK UNBOUND:                -0.850
REMARK  Name = 
REMARK  5 active torsions:
REMARK  status: ('A' for Active; 'I' for Inactive)
REMARK    1  A    between atoms: C_1  and  C_2
REMARK    2  A    between atoms: C_7  and  N_8
REMARK    3  A    between atoms: N_8  and  C_9
REMARK    4  A    between atoms: C_9  and  C_10
REMARK    5  A    between atoms: C_14  and  C_15
REMARK                            x       y       z     vdW  Elec       q    Type
REMARK                         _______ _______ _______ _____ _____    ______ ____
ROOT
ATOM      1  C   UNL     1      48.041   7.604  13.669  0.00  0.00    +0.000 C 
ATOM      2  C   UNL     1      49.207   8.363  13.007  0.00  0.00    +0.000 C 
ATOM      3  C   UNL     1      48.477   8.976  14.142  0.00  0.00    +0.000 C 
ENDROOT
BRANCH   1   4
ATOM      4  C   UNL     1      46.744   7.543  12.848  0.00  0.00    +0.000 A 
ATOM      5  C   UNL     1      45.905   8.654  12.701  0.00  0.00    +0.000 A 
ATOM      6  C   UNL     1      44.790   8.605  11.861  0.00  0.00    +0.000 A 
ATOM      7  C   UNL     1      44.500   7.445  11.137  0.00  0.00    +0.000 A 
ATOM      8  C   UNL     1      45.312   6.305  11.242  0.00  0.00    +0.000 A 
ATOM      9  C   UNL     1      46.389   6.373  12.144  0.00  0.00    +0.000 A 
BRANCH   8  10
ATOM     10  C   UNL     1      45.132   5.118  10.369  0.00  0.00    +0.000 A 
ATOM     11  C   UNL     1      45.672   5.089   9.070  0.00  0.00    +0.000 A 
ATOM     12  C   UNL     1      45.616   3.937   8.277  0.00  0.00    +0.000 A 
ATOM     13  C   UNL     1      45.023   2.780   8.769  0.00  0.00    +0.000 A 
ATOM     14  C   UNL     1      44.466   2.782  10.044  0.00  0.00    +0.000 A 
ATOM     15  C   UNL     1      44.509   3.942  10.829  0.00  0.00    +0.000 A 
ENDBRANCH   8  10
ENDBRANCH   1   4
BRANCH   1  16
ATOM     16  N   UNL     1      48.444   6.305  14.193  0.00  0.00    +0.000 N 
ATOM     17  H   UNL     1      49.016   5.728  13.579  0.00  0.00    +0.000 HD
BRANCH  16  24
ATOM     18  C   UNL     1      46.878   3.566  13.999  0.00  0.00    +0.000 C 
ATOM     19  C   UNL     1      47.328   4.285  15.223  0.00  0.00    +0.000 A 
ATOM     20  N   UNL     1      46.938   3.658  16.380  0.00  0.00    +0.000 NA
ATOM     21  C   UNL     1      47.302   4.237  17.538  0.00  0.00    +0.000 A 
ATOM     22  C   UNL     1      48.046   5.391  17.558  0.00  0.00    +0.000 A 
ATOM     23  N   UNL     1      48.422   6.024  16.429  0.00  0.00    +0.000 NA
ATOM     24  C   UNL     1      48.051   5.481  15.234  0.00  0.00    +0.000 A 
ENDBRANCH  16  24
ENDBRANCH   1  16
TORSDOF 4
ENDMDL
MODEL 5
REMARK VINA RESULT:    -6.602      1.883      3.149
REMARK INTER + INTRA:          -8.996
REMARK INTER:                  -8.109
REMARK INTRA:                  -0.887
REMARK UNBOUND:                -0.850
REMARK  Name = 
REMARK  5 active torsions:
REMARK  status: ('A' for Active; 'I' for Inactive)
REMARK    1  A    between atoms: C_1  and  C_2
REMARK    2  A    between atoms: C_7  and  N_8
REMARK    3  A    between atoms: N_8  and  C_9
REMARK    4  A    between atoms: C_9  and  C_10
REMARK    5  A    between atoms: C_14  and  C_15
REMARK                            x       y       z     vdW  Elec       q    Type
REMARK                         _______ _______ _______ _____ _____    ______ ____
ROOT
ATOM      1  C   UNL     1      48.877   7.884  12.613  0.00  0.00    +0.000 C 
ATOM      2  C   UNL     1      49.838   7.749  11.418  0.00  0.00    +0.000 C 
ATOM      3  C   UNL     1      49.557   9.087  11.990  0.00  0.00    +0.000 C 
ENDROOT
BRANCH   1   4
ATOM      4  C   UNL     1      47.388   7.696  12.286  0.00  0.00    +0.000 A 
ATOM      5  C   UNL     1      46.449   8.717  12.478  0.00  0.00    +0.000 A 
ATOM      6  C   UNL     1      45.123   8.559  12.070  0.00  0.00    +0.000 A 
ATOM      7  C   UNL     1      44.711   7.378  11.446  0.00  0.00    +0.000 A 
ATOM      8  C   UNL     1      45.611   6.325  11.223  0.00  0.00    +0.000 A 
ATOM      9  C   UNL     1      46.922   6.498  11.703  0.00  0.00    +0.000 A 
BRANCH   8  10
ATOM     10  C   UNL     1      45.253   5.129  10.422  0.00  0.00    +0.000 A 
ATOM     11  C   UNL     1      45.644   5.020   9.074  0.00  0.00    +0.000 A 
ATOM     12  C   UNL     1      45.419   3.852   8.336  0.00  0.00    +0.000 A 
ATOM     13  C   UNL     1      44.803   2.757   8.933  0.00  0.00    +0.000 A 
ATOM     14  C   UNL     1      44.392   2.840  10.260  0.00  0.00    +0.000 A 
ATOM     15  C   UNL     1      44.603   4.016  10.990  0.00  0.00    +0.000 A 
ENDBRANCH   8  10
ENDBRANCH   1   4
BRANCH   1  16
ATOM     16  N   UNL     1      49.307   7.109  13.770  0.00  0.00    +0.000 N 
ATOM     17  H   UNL     1      49.834   6.260  13.574  0.00  0.00    +0.000 HD
BRANCH  16  24
ATOM     18  C   UNL     1      48.948   9.532  15.768  0.00  0.00    +0.000 C 
ATOM     19  C   UNL     1      48.845   8.076  16.059  0.00  0.00    +0.000 A 
ATOM     20  N   UNL     1      48.617   7.815  17.387  0.00  0.00    +0.000 NA
ATOM     21  C   UNL     1      48.509   6.523  17.744  0.00  0.00    +0.000 A 
ATOM     22  C   UNL     1      48.603   5.514  16.816  0.00  0.00    +0.000 A 
ATOM     23  N   UNL     1      48.841   5.757  15.511  0.00  0.00    +0.000 NA
ATOM     24  C   UNL     1      48.982   7.054  15.115  0.00  0.00    +0.000 A 
ENDBRANCH  16  24
ENDBRANCH   1  16
TORSDOF 4
ENDMDL
MODEL 6
REMARK VINA RESULT:    -6.017      3.075      6.678
REMARK INTER + INTRA:          -8.274
REMARK INTER:                  -7.229
REMARK INTRA:                  -1.044
REMARK UNBOUND:                -0.850
REMARK  Name = 
REMARK  5 active torsions:
REMARK  status: ('A' for Active; 'I' for Inactive)
REMARK    1  A    between atoms: C_1  and  C_2
REMARK    2  A    between atoms: C_7  and  N_8
REMARK    3  A    between atoms: N_8  and  C_9
REMARK    4  A    between atoms: C_9  and  C_10
REMARK    5  A    between atoms: C_14  and  C_15
REMARK                            x       y       z     vdW  Elec       q    Type
REMARK                         _______ _______ _______ _____ _____    ______ ____
ROOT
ATOM      1  C   UNL     1      45.761   7.916  12.484  0.00  0.00    +0.000 C 
ATOM      2  C   UNL     1      45.120   9.291  12.750  0.00  0.00    +0.000 C 
ATOM      3  C   UNL     1      45.201   8.771  11.365  0.00  0.00    +0.000 C 
ENDROOT
BRANCH   1   4
ATOM      4  C   UNL     1      47.291   7.868  12.607  0.00  0.00    +0.000 A 
ATOM      5  C   UNL     1      48.133   8.446  11.650  0.00  0.00    +0.000 A 
ATOM      6  C   UNL     1      49.516   8.485  11.839  0.00  0.00    +0.000 A 
ATOM      7  C   UNL     1      50.086   7.957  13.002  0.00  0.00    +0.000 A 
ATOM      8  C   UNL     1      49.288   7.371  13.996  0.00  0.00    +0.000 A 
ATOM      9  C   UNL     1      47.907   7.296  13.741  0.00  0.00    +0.000 A 
BRANCH   8  10
ATOM     10  C   UNL     1      49.837   6.950  15.310  0.00  0.00    +0.000 A 
ATOM     11  C   UNL     1      49.047   6.228  16.223  0.00  0.00    +0.000 A 
ATOM     12  C   UNL     1      49.580   5.720  17.414  0.00  0.00    +0.000 A 
ATOM     13  C   UNL     1      50.923   5.917  17.716  0.00  0.00    +0.000 A 
ATOM     14  C   UNL     1      51.726   6.640  16.840  0.00  0.00    +0.000 A 
ATOM     15  C   UNL     1      51.185   7.160  15.657  0.00  0.00    +0.000 A 
ENDBRANCH   8  10
ENDBRANCH   1   4
BRANCH   1  16
ATOM     16  N   UNL     1      45.097   6.839  13.208  0.00  0.00    +0.000 N 
ATOM     17  H   UNL     1      45.078   6.922  14.222  0.00  0.00    +0.000 HD
BRANCH  16  24
ATOM     18  C   UNL     1      46.677   4.149  13.720  0.00  0.00    +0.000 C 
ATOM     19  C   UNL     1      45.342   4.327  13.086  0.00  0.00    +0.000 A 
ATOM     20  N   UNL     1      44.805   3.144  12.641  0.00  0.00    +0.000 NA
ATOM     21  C   UNL     1      43.596   3.208  12.054  0.00  0.00    +0.000 A 
ATOM     22  C   UNL     1      42.925   4.399  11.924  0.00  0.00    +0.000 A 
ATOM     23  N   UNL     1      43.449   5.569  12.344  0.00  0.00    +0.000 NA
ATOM     24  C   UNL     1      44.683   5.549  12.922  0.00  0.00    +0.000 A 
ENDBRANCH  16  24
ENDBRANCH   1  16
TORSDOF 4
ENDMDL
MODEL 7
REMARK VINA RESULT:    -5.885      3.205      7.495
REMARK INTER + INTRA:          -8.111
REMARK INTER:                  -7.267
REMARK INTRA:                  -0.844
REMARK UNBOUND:                -0.850
REMARK  Name = 
REMARK  5 active torsions:
REMARK  status: ('A' for Active; 'I' for Inactive)
REMARK    1  A    between atoms: C_1  and  C_2
REMARK    2  A    between atoms: C_7  and  N_8
REMARK    3  A    between atoms: N_8  and  C_9
REMARK    4  A    between atoms: C_9  and  C_10
REMARK    5  A    between atoms: C_14  and  C_15
REMARK                            x       y       z     vdW  Elec       q    Type
REMARK                         _______ _______ _______ _____ _____    ______ ____
ROOT
ATOM      1  C   UNL     1      47.534   7.138  13.006  0.00  0.00    +0.000 C 
ATOM      2  C   UNL     1      47.369   8.481  12.272  0.00  0.00    +0.000 C 
ATOM      3  C   UNL     1      47.935   7.314  11.555  0.00  0.00    +0.000 C 
ENDROOT
BRANCH   1   4
ATOM      4  C   UNL     1      48.679   7.082  14.029  0.00  0.00    +0.000 A 
ATOM      5  C   UNL     1      49.932   7.650  13.775  0.00  0.00    +0.000 A 
ATOM      6  C   UNL     1      50.920   7.683  14.761  0.00  0.00    +0.000 A 
ATOM      7  C   UNL     1      50.667   7.161  16.033  0.00  0.00    +0.000 A 
ATOM      8  C   UNL     1      49.425   6.585  16.344  0.00  0.00    +0.000 A 
ATOM      9  C   UNL     1      48.479   6.515  15.306  0.00  0.00    +0.000 A 
BRANCH   8  10
ATOM     10  C   UNL     1      49.065   6.170  17.723  0.00  0.00    +0.000 A 
ATOM     11  C   UNL     1      48.092   6.874  18.457  0.00  0.00    +0.000 A 
ATOM     12  C   UNL     1      47.654   6.430  19.710  0.00  0.00    +0.000 A 
ATOM     13  C   UNL     1      48.174   5.262  20.257  0.00  0.00    +0.000 A 
ATOM     14  C   UNL     1      49.149   4.553  19.563  0.00  0.00    +0.000 A 
ATOM     15  C   UNL     1      49.597   5.009  18.316  0.00  0.00    +0.000 A 
ENDBRANCH   8  10
ENDBRANCH   1   4
BRANCH   1  16
ATOM     16  N   UNL     1      46.274   6.628  13.533  0.00  0.00    +0.000 N 
ATOM     17  H   UNL     1      45.989   6.984  14.444  0.00  0.00    +0.000 HD
BRANCH  16  24
ATOM     18  C   UNL     1      46.975   3.547  13.620  0.00  0.00    +0.000 C 
ATOM     19  C   UNL     1      45.686   4.188  13.242  0.00  0.00    +0.000 A 
ATOM     20  N   UNL     1      44.740   3.278  12.839  0.00  0.00    +0.000 NA
ATOM     21  C   UNL     1      43.540   3.768  12.478  0.00  0.00    +0.000 A 
ATOM     22  C   UNL     1      43.271   5.113  12.530  0.00  0.00    +0.000 A 
ATOM     23  N   UNL     1      44.197   6.018  12.910  0.00  0.00    +0.000 NA
ATOM     24  C   UNL     1      45.433   5.563  13.260  0.00  0.00    +0.000 A 
ENDBRANCH  16  24
ENDBRANCH   1  16
TORSDOF 4
ENDMDL
MODEL 8
REMARK VINA RESULT:    -5.876      1.974      3.179
REMARK INTER + INTRA:          -8.100
REMARK INTER:                  -7.040
REMARK INTRA:                  -1.060
REMARK UNBOUND:                -0.850
REMARK  Name = 
REMARK  5 active torsions:
REMARK  status: ('A' for Active; 'I' for Inactive)
REMARK    1  A    between atoms: C_1  and  C_2
REMARK    2  A    between atoms: C_7  and  N_8
REMARK    3  A    between atoms: N_8  and  C_9
REMARK    4  A    between atoms: C_9  and  C_10
REMARK    5  A    between atoms: C_14  and  C_15
REMARK                            x       y       z     vdW  Elec       q    Type
REMARK                         _______ _______ _______ _____ _____    ______ ____
ROOT
ATOM      1  C   UNL     1      47.215   5.352  14.231  0.00  0.00    +0.000 C 
ATOM      2  C   UNL     1      46.707   4.502  15.411  0.00  0.00    +0.000 C 
ATOM      3  C   UNL     1      47.634   3.908  14.419  0.00  0.00    +0.000 C 
ENDROOT
BRANCH   1   4
ATOM      4  C   UNL     1      46.185   5.625  13.124  0.00  0.00    +0.000 A 
ATOM      5  C   UNL     1      45.463   6.823  13.059  0.00  0.00    +0.000 A 
ATOM      6  C   UNL     1      44.614   7.093  11.984  0.00  0.00    +0.000 A 
ATOM      7  C   UNL     1      44.481   6.172  10.940  0.00  0.00    +0.000 A 
ATOM      8  C   UNL     1      45.185   4.958  10.951  0.00  0.00    +0.000 A 
ATOM      9  C   UNL     1      45.982   4.697  12.080  0.00  0.00    +0.000 A 
BRANCH   8  10
ATOM     10  C   UNL     1      45.196   4.035   9.790  0.00  0.00    +0.000 A 
ATOM     11  C   UNL     1      45.682   4.456   8.538  0.00  0.00    +0.000 A 
ATOM     12  C   UNL     1      45.812   3.568   7.464  0.00  0.00    +0.000 A 
ATOM     13  C   UNL     1      45.464   2.230   7.619  0.00  0.00    +0.000 A 
ATOM     14  C   UNL     1      44.965   1.787   8.840  0.00  0.00    +0.000 A 
ATOM     15  C   UNL     1      44.822   2.682   9.908  0.00  0.00    +0.000 A 
ENDBRANCH   8  10
ENDBRANCH   1   4
BRANCH   1  16
ATOM     16  N   UNL     1      47.916   6.554  14.665  0.00  0.00    +0.000 N 
ATOM     17  H   UNL     1      47.377   7.214  15.223  0.00  0.00    +0.000 HD
BRANCH  16  24
ATOM     18  C   UNL     1      48.738   7.639  11.813  0.00  0.00    +0.000 C 
ATOM     19  C   UNL     1      49.525   7.682  13.076  0.00  0.00    +0.000 A 
ATOM     20  N   UNL     1      50.774   8.223  12.904  0.00  0.00    +0.000 NA
ATOM     21  C   UNL     1      51.557   8.304  13.995  0.00  0.00    +0.000 A 
ATOM     22  C   UNL     1      51.117   7.881  15.225  0.00  0.00    +0.000 A 
ATOM     23  N   UNL     1      49.897   7.333  15.403  0.00  0.00    +0.000 NA
ATOM     24  C   UNL     1      49.083   7.212  14.316  0.00  0.00    +0.000 A 
ENDBRANCH  16  24
ENDBRANCH   1  16
TORSDOF 4
ENDMDL
MODEL 9
REMARK VINA RESULT:    -5.658      2.378      4.157
REMARK INTER + INTRA:          -7.831
REMARK INTER:                  -6.919
REMARK INTRA:                  -0.912
REMARK UNBOUND:                -0.850
REMARK  Name = 
REMARK  5 active torsions:
REMARK  status: ('A' for Active; 'I' for Inactive)
REMARK    1  A    between atoms: C_1  and  C_2
REMARK    2  A    between atoms: C_7  and  N_8
REMARK    3  A    between atoms: N_8  and  C_9
REMARK    4  A    between atoms: C_9  and  C_10
REMARK    5  A    between atoms: C_14  and  C_15
REMARK                            x       y       z     vdW  Elec       q    Type
REMARK                         _______ _______ _______ _____ _____    ______ ____
ROOT
ATOM      1  C   UNL     1      48.771   7.832  15.301  0.00  0.00    +0.000 C 
ATOM      2  C   UNL     1      49.568   9.111  15.617  0.00  0.00    +0.000 C 
ATOM      3  C   UNL     1      48.151   9.003  16.037  0.00  0.00    +0.000 C 
ENDROOT
BRANCH   1   4
ATOM      4  C   UNL     1      48.363   7.656  13.830  0.00  0.00    +0.000 A 
ATOM      5  C   UNL     1      49.247   7.917  12.777  0.00  0.00    +0.000 A 
ATOM      6  C   UNL     1      48.889   7.645  11.455  0.00  0.00    +0.000 A 
ATOM      7  C   UNL     1      47.640   7.090  11.160  0.00  0.00    +0.000 A 
ATOM      8  C   UNL     1      46.718   6.803  12.178  0.00  0.00    +0.000 A 
ATOM      9  C   UNL     1      47.091   7.148  13.489  0.00  0.00    +0.000 A 
BRANCH   8  10
ATOM     10  C   UNL     1      45.455   6.067  11.922  0.00  0.00    +0.000 A 
ATOM     11  C   UNL     1      45.215   5.459  10.675  0.00  0.00    +0.000 A 
ATOM     12  C   UNL     1      44.086   4.661  10.453  0.00  0.00    +0.000 A 
ATOM     13  C   UNL     1      43.171   4.446  11.478  0.00  0.00    +0.000 A 
ATOM     14  C   UNL     1      43.373   5.046  12.717  0.00  0.00    +0.000 A 
ATOM     15  C   UNL     1      44.496   5.857  12.931  0.00  0.00    +0.000 A 
ENDBRANCH   8  10
ENDBRANCH   1   4
BRANCH   1  16
ATOM     16  N   UNL     1      49.380   6.636  15.870  0.00  0.00    +0.000 N 
ATOM     17  H   UNL     1      50.184   6.259  15.371  0.00  0.00    +0.000 HD
BRANCH  16  24
ATOM     18  C   UNL     1      47.237   4.339  15.520  0.00  0.00    +0.000 C 
ATOM     19  C   UNL     1      48.058   4.658  16.720  0.00  0.00    +0.000 A 
ATOM     20  N   UNL     1      47.763   3.853  17.792  0.00  0.00    +0.000 NA
ATOM     21  C   UNL     1      48.458   4.068  18.924  0.00  0.00    +0.000 A 
ATOM     22  C   UNL     1      49.430   5.036  18.993  0.00  0.00    +0.000 A 
ATOM     23  N   UNL     1      49.718   5.842  17.951  0.00  0.00    +0.000 NA
ATOM     24  C   UNL     1      49.017   5.671  16.794  0.00  0.00    +0.000 A 
ENDBRANCH  16  24
ENDBRANCH   1  16
TORSDOF 4
ENDMDL
