MODEL 1
REMARK VINA RESULT:    -8.840      0.000      0.000
REMARK INTER + INTRA:         -12.807
REMARK INTER:                 -11.940
REMARK INTRA:                  -0.867
REMARK UNBOUND:                -0.867
REMARK  Name = 
REMARK  6 active torsions:
REMARK  status: ('A' for Active; 'I' for Inactive)
REMARK    1  A    between atoms: C_2  and  C_4
REMARK    2  A    between atoms: N_8  and  C_9
REMARK    3  A    between atoms: C_9  and  C_10
REMARK    4  A    between atoms: C_10  and  C_11
REMARK    5  A    between atoms: C_15  and  O_16
REMARK    6  A    between atoms: O_16  and  C_17
REMARK                            x       y       z     vdW  Elec       q    Type
REMARK                         _______ _______ _______ _____ _____    ______ ____
ROOT
ATOM      1  C   UNL     1      46.477   2.532   7.707  0.00  0.00    +0.000 A 
ATOM      2  C   UNL     1      45.607   1.908   8.593  0.00  0.00    +0.000 A 
ATOM      3  C   UNL     1      44.696   2.684   9.308  0.00  0.00    +0.000 A 
ATOM      4  C   UNL     1      44.683   4.068   9.144  0.00  0.00    +0.000 A 
ATOM      5  N   UNL     1      43.745   4.891   9.750  0.00  0.00    +0.000 N 
ATOM      6  N   UNL     1      45.548   4.686   8.318  0.00  0.00    +0.000 NA
ATOM      7  C   UNL     1      46.428   3.916   7.622  0.00  0.00    +0.000 A 
ATOM      8  H   UNL     1      44.052   5.850   9.594  0.00  0.00    +0.000 HD
ENDROOT
BRANCH   1  10
ATOM      9  N   UNL     1      48.502   2.477   6.372  0.00  0.00    +0.000 N 
ATOM     10  C   UNL     1      47.426   1.784   6.859  0.00  0.00    +0.000 C 
ATOM     11  O   UNL     1      47.284   0.592   6.635  0.00  0.00    +0.000 OA
ATOM     12  H   UNL     1      49.208   1.931   5.893  0.00  0.00    +0.000 HD
ATOM     13  H   UNL     1      48.783   3.373   6.744  0.00  0.00    +0.000 HD
ENDBRANCH   1  10
BRANCH   5  14
ATOM     14  C   UNL     1      43.299   4.571  11.098  0.00  0.00    +0.000 C 
BRANCH  14  15
ATOM     15  C   UNL     1      43.581   5.733  12.057  0.00  0.00    +0.000 C 
BRANCH  15  16
ATOM     16  C   UNL     1      45.052   5.810  12.385  0.00  0.00    +0.000 A 
ATOM     17  C   UNL     1      45.833   6.876  11.920  0.00  0.00    +0.000 A 
ATOM     18  C   UNL     1      47.177   6.979  12.284  0.00  0.00    +0.000 A 
ATOM     19  C   UNL     1      47.758   6.018  13.116  0.00  0.00    +0.000 A 
ATOM     20  C   UNL     1      46.992   4.952  13.579  0.00  0.00    +0.000 A 
ATOM     21  C   UNL     1      45.646   4.853  13.220  0.00  0.00    +0.000 A 
BRANCH  20  22
ATOM     22  O   UNL     1      47.445   3.973  14.427  0.00  0.00    +0.000 OA
BRANCH  22  23
ATOM     23  C   UNL     1      47.260   4.135  15.850  0.00  0.00    +0.000 C 
ATOM     24  C   UNL     1      48.174   5.157  16.565  0.00  0.00    +0.000 C 
ATOM     25  C   UNL     1      48.503   4.099  17.626  0.00  0.00    +0.000 C 
ATOM     26  C   UNL     1      47.928   3.024  16.697  0.00  0.00    +0.000 C 
ENDBRANCH  22  23
ENDBRANCH  20  22
ENDBRANCH  15  16
ENDBRANCH  14  15
ENDBRANCH   5  14
TORSDOF 6
ENDMDL
MODEL 2
REMARK VINA RESULT:    -8.344      1.695      3.263
REMARK INTER + INTRA:         -12.138
REMARK INTER:                 -11.191
REMARK INTRA:                  -0.946
REMARK UNBOUND:                -0.867
REMARK  Name = 
REMARK  6 active torsions:
REMARK  status: ('A' for Active; 'I' for Inactive)
REMARK    1  A    between atoms: C_2  and  C_4
REMARK    2  A    between atoms: N_8  and  C_9
REMARK    3  A    between atoms: C_9  and  C_10
REMARK    4  A    between atoms: C_10  and  C_11
REMARK    5  A    between atoms: C_15  and  O_16
REMARK    6  A    between atoms: O_16  and  C_17
REMARK                            x       y       z     vdW  Elec       q    Type
REMARK                         _______ _______ _______ _____ _____    ______ ____
ROOT
ATOM      1  C   UNL     1      46.479   2.521   7.711  0.00  0.00    +0.000 A 
ATOM      2  C   UNL     1      45.625   1.857   8.584  0.00  0.00    +0.000 A 
ATOM      3  C   UNL     1      44.689   2.595   9.308  0.00  0.00    +0.000 A 
ATOM      4  C   UNL     1      44.635   3.980   9.166  0.00  0.00    +0.000 A 
ATOM      5  N   UNL     1      43.672   4.765   9.781  0.00  0.00    +0.000 N 
ATOM      6  N   UNL     1      45.484   4.636   8.353  0.00  0.00    +0.000 NA
ATOM      7  C   UNL     1      46.389   3.903   7.648  0.00  0.00    +0.000 A 
ATOM      8  H   UNL     1      43.951   5.735   9.641  0.00  0.00    +0.000 HD
ENDROOT
BRANCH   1  10
ATOM      9  N   UNL     1      48.530   2.536   6.416  0.00  0.00    +0.000 N 
ATOM     10  C   UNL     1      47.452   1.814   6.855  0.00  0.00    +0.000 C 
ATOM     11  O   UNL     1      47.326   0.630   6.583  0.00  0.00    +0.000 OA
ATOM     12  H   UNL     1      49.251   2.015   5.932  0.00  0.00    +0.000 HD
ATOM     13  H   UNL     1      48.795   3.419   6.827  0.00  0.00    +0.000 HD
ENDBRANCH   1  10
BRANCH   5  14
ATOM     14  C   UNL     1      43.231   4.411  11.122  0.00  0.00    +0.000 C 
BRANCH  14  15
ATOM     15  C   UNL     1      43.415   5.588  12.087  0.00  0.00    +0.000 C 
BRANCH  15  16
ATOM     16  C   UNL     1      44.802   5.577  12.685  0.00  0.00    +0.000 A 
ATOM     17  C   UNL     1      45.345   4.397  13.208  0.00  0.00    +0.000 A 
ATOM     18  C   UNL     1      46.652   4.378  13.698  0.00  0.00    +0.000 A 
ATOM     19  C   UNL     1      47.434   5.537  13.671  0.00  0.00    +0.000 A 
ATOM     20  C   UNL     1      46.901   6.716  13.157  0.00  0.00    +0.000 A 
ATOM     21  C   UNL     1      45.595   6.734  12.662  0.00  0.00    +0.000 A 
BRANCH  20  22
ATOM     22  O   UNL     1      47.584   7.900  13.047  0.00  0.00    +0.000 OA
BRANCH  22  23
ATOM     23  C   UNL     1      48.360   8.156  11.856  0.00  0.00    +0.000 C 
ATOM     24  C   UNL     1      49.862   7.788  11.904  0.00  0.00    +0.000 C 
ATOM     25  C   UNL     1      50.205   9.178  11.354  0.00  0.00    +0.000 C 
ATOM     26  C   UNL     1      48.782   9.636  11.692  0.00  0.00    +0.000 C 
ENDBRANCH  22  23
ENDBRANCH  20  22
ENDBRANCH  15  16
ENDBRANCH  14  15
ENDBRANCH   5  14
TORSDOF 6
ENDMDL
MODEL 3
REMARK VINA RESULT:    -7.428      2.262      3.976
REMARK INTER + INTRA:         -10.900
REMARK INTER:                 -10.390
REMARK INTRA:                  -0.510
REMARK UNBOUND:                -0.867
REMARK  Name = 
REMARK  6 active torsions:
REMARK  status: ('A' for Active; 'I' for Inactive)
REMARK    1  A    between atoms: C_2  and  C_4
REMARK    2  A    between atoms: N_8  and  C_9
REMARK    3  A    between atoms: C_9  and  C_10
REMARK    4  A    between atoms: C_10  and  C_11
REMARK    5  A    between atoms: C_15  and  O_16
REMARK    6  A    between atoms: O_16  and  C_17
REMARK                            x       y       z     vdW  Elec       q    Type
REMARK                         _______ _______ _______ _____ _____    ______ ____
ROOT
ATOM      1  C   UNL     1      46.440   2.800   7.485  0.00  0.00    +0.000 A 
ATOM      2  C   UNL     1      45.968   1.759   8.276  0.00  0.00    +0.000 A 
ATOM      3  C   UNL     1      45.045   2.038   9.283  0.00  0.00    +0.000 A 
ATOM      4  C   UNL     1      44.626   3.350   9.498  0.00  0.00    +0.000 A 
ATOM      5  N   UNL     1      43.643   3.689  10.416  0.00  0.00    +0.000 N 
ATOM      6  N   UNL     1      45.107   4.371   8.763  0.00  0.00    +0.000 NA
ATOM      7  C   UNL     1      46.004   4.083   7.779  0.00  0.00    +0.000 A 
ATOM      8  H   UNL     1      43.642   4.705  10.483  0.00  0.00    +0.000 HD
ENDROOT
BRANCH   1  10
ATOM      9  N   UNL     1      48.570   2.005   6.640  0.00  0.00    +0.000 N 
ATOM     10  C   UNL     1      47.364   2.587   6.353  0.00  0.00    +0.000 C 
ATOM     11  O   UNL     1      47.053   2.876   5.208  0.00  0.00    +0.000 OA
ATOM     12  H   UNL     1      49.147   1.754   5.846  0.00  0.00    +0.000 HD
ATOM     13  H   UNL     1      48.749   1.526   7.510  0.00  0.00    +0.000 HD
ENDBRANCH   1  10
BRANCH   5  14
ATOM     14  C   UNL     1      43.581   2.961  11.675  0.00  0.00    +0.000 C 
BRANCH  14  15
ATOM     15  C   UNL     1      43.504   3.929  12.861  0.00  0.00    +0.000 C 
BRANCH  15  16
ATOM     16  C   UNL     1      44.620   4.943  12.798  0.00  0.00    +0.000 A 
ATOM     17  C   UNL     1      45.906   4.619  13.247  0.00  0.00    +0.000 A 
ATOM     18  C   UNL     1      46.951   5.538  13.123  0.00  0.00    +0.000 A 
ATOM     19  C   UNL     1      46.723   6.792  12.549  0.00  0.00    +0.000 A 
ATOM     20  C   UNL     1      45.447   7.126  12.104  0.00  0.00    +0.000 A 
ATOM     21  C   UNL     1      44.404   6.204  12.223  0.00  0.00    +0.000 A 
BRANCH  20  22
ATOM     22  O   UNL     1      45.115   8.309  11.493  0.00  0.00    +0.000 OA
BRANCH  22  23
ATOM     23  C   UNL     1      45.377   9.552  12.179  0.00  0.00    +0.000 C 
ATOM     24  C   UNL     1      44.817  10.841  11.533  0.00  0.00    +0.000 C 
ATOM     25  C   UNL     1      46.196  11.497  11.683  0.00  0.00    +0.000 C 
ATOM     26  C   UNL     1      46.800  10.111  11.938  0.00  0.00    +0.000 C 
ENDBRANCH  22  23
ENDBRANCH  20  22
ENDBRANCH  15  16
ENDBRANCH  14  15
ENDBRANCH   5  14
TORSDOF 6
ENDMDL
MODEL 4
REMARK VINA RESULT:    -7.277      3.364      8.068
REMARK INTER + INTRA:         -10.697
REMARK INTER:                  -9.967
REMARK INTRA:                  -0.730
REMARK UNBOUND:                -0.867
REMARK  Name = 
REMARK  6 active torsions:
REMARK  status: ('A' for Active; 'I' for Inactive)
REMARK    1  A    between atoms: C_2  and  C_4
REMARK    2  A    between atoms: N_8  and  C_9
REMARK    3  A    between atoms: C_9  and  C_10
REMARK    4  A    between atoms: C_10  and  C_11
REMARK    5  A    between atoms: C_15  and  O_16
REMARK    6  A    between atoms: O_16  and  C_17
REMARK                            x       y       z     vdW  Elec       q    Type
REMARK                         _______ _______ _______ _____ _____    ______ ____
ROOT
ATOM      1  C   UNL     1      48.458   4.230  16.967  0.00  0.00    +0.000 A 
ATOM      2  C   UNL     1      47.498   3.631  16.160  0.00  0.00    +0.000 A 
ATOM      3  C   UNL     1      47.076   4.289  15.006  0.00  0.00    +0.000 A 
ATOM      4  C   UNL     1      47.600   5.541  14.689  0.00  0.00    +0.000 A 
ATOM      5  N   UNL     1      47.298   6.210  13.513  0.00  0.00    +0.000 N 
ATOM      6  N   UNL     1      48.502   6.147  15.485  0.00  0.00    +0.000 NA
ATOM      7  C   UNL     1      48.909   5.490  16.606  0.00  0.00    +0.000 A 
ATOM      8  H   UNL     1      47.682   7.150  13.603  0.00  0.00    +0.000 HD
ENDROOT
BRANCH   1  10
ATOM      9  N   UNL     1      49.997   2.643  17.968  0.00  0.00    +0.000 N 
ATOM     10  C   UNL     1      49.013   3.575  18.168  0.00  0.00    +0.000 C 
ATOM     11  O   UNL     1      48.645   3.878  19.292  0.00  0.00    +0.000 OA
ATOM     12  H   UNL     1      50.454   2.288  18.798  0.00  0.00    +0.000 HD
ATOM     13  H   UNL     1      50.496   2.562  17.094  0.00  0.00    +0.000 HD
ENDBRANCH   1  10
BRANCH   5  14
ATOM     14  C   UNL     1      45.947   6.117  12.982  0.00  0.00    +0.000 C 
BRANCH  14  15
ATOM     15  C   UNL     1      45.939   6.336  11.465  0.00  0.00    +0.000 C 
BRANCH  15  16
ATOM     16  C   UNL     1      45.419   5.112  10.750  0.00  0.00    +0.000 A 
ATOM     17  C   UNL     1      44.642   4.165  11.428  0.00  0.00    +0.000 A 
ATOM     18  C   UNL     1      44.107   3.070  10.745  0.00  0.00    +0.000 A 
ATOM     19  C   UNL     1      44.342   2.908   9.377  0.00  0.00    +0.000 A 
ATOM     20  C   UNL     1      45.118   3.842   8.695  0.00  0.00    +0.000 A 
ATOM     21  C   UNL     1      45.648   4.940   9.377  0.00  0.00    +0.000 A 
BRANCH  20  22
ATOM     22  O   UNL     1      45.384   3.805   7.350  0.00  0.00    +0.000 OA
BRANCH  22  23
ATOM     23  C   UNL     1      46.729   3.529   6.905  0.00  0.00    +0.000 C 
ATOM     24  C   UNL     1      46.910   3.120   5.424  0.00  0.00    +0.000 C 
ATOM     25  C   UNL     1      47.762   1.926   5.873  0.00  0.00    +0.000 C 
ATOM     26  C   UNL     1      47.241   2.123   7.301  0.00  0.00    +0.000 C 
ENDBRANCH  22  23
ENDBRANCH  20  22
ENDBRANCH  15  16
ENDBRANCH  14  15
ENDBRANCH   5  14
TORSDOF 6
ENDMDL
MODEL 5
REMARK VINA RESULT:    -6.742      3.940      8.606
REMARK INTER + INTRA:          -9.973
REMARK INTER:                  -9.340
REMARK INTRA:                  -0.634
REMARK UNBOUND:                -0.867
REMARK  Name = 
REMARK  6 active torsions:
REMARK  status: ('A' for Active; 'I' for Inactive)
REMARK    1  A    between atoms: C_2  and  C_4
REMARK    2  A    between atoms: N_8  and  C_9
REMARK    3  A    between atoms: C_9  and  C_10
REMARK    4  A    between atoms: C_10  and  C_11
REMARK    5  A    between atoms: C_15  and  O_16
REMARK    6  A    between atoms: O_16  and  C_17
REMARK                            x       y       z     vdW  Elec       q    Type
REMARK                         _______ _______ _______ _____ _____    ______ ____
ROOT
ATOM      1  C   UNL     1      48.571   4.384  18.836  0.00  0.00    +0.000 A 
ATOM      2  C   UNL     1      48.803   5.450  17.975  0.00  0.00    +0.000 A 
ATOM      3  C   UNL     1      48.164   5.472  16.736  0.00  0.00    +0.000 A 
ATOM      4  C   UNL     1      47.324   4.423  16.368  0.00  0.00    +0.000 A 
ATOM      5  N   UNL     1      46.584   4.422  15.195  0.00  0.00    +0.000 N 
ATOM      6  N   UNL     1      47.124   3.366  17.179  0.00  0.00    +0.000 NA
ATOM      7  C   UNL     1      47.749   3.361  18.388  0.00  0.00    +0.000 A 
ATOM      8  H   UNL     1      46.188   3.489  15.099  0.00  0.00    +0.000 HD
ENDROOT
BRANCH   1  10
ATOM      9  N   UNL     1      50.506   4.465  20.297  0.00  0.00    +0.000 N 
ATOM     10  C   UNL     1      49.149   4.313  20.193  0.00  0.00    +0.000 C 
ATOM     11  O   UNL     1      48.448   4.168  21.182  0.00  0.00    +0.000 OA
ATOM     12  H   UNL     1      50.879   4.535  21.236  0.00  0.00    +0.000 HD
ATOM     13  H   UNL     1      51.069   4.840  19.546  0.00  0.00    +0.000 HD
ENDBRANCH   1  10
BRANCH   5  14
ATOM     14  C   UNL     1      47.175   4.997  13.995  0.00  0.00    +0.000 C 
BRANCH  14  15
ATOM     15  C   UNL     1      46.207   5.979  13.327  0.00  0.00    +0.000 C 
BRANCH  15  16
ATOM     16  C   UNL     1      45.121   5.239  12.585  0.00  0.00    +0.000 A 
ATOM     17  C   UNL     1      43.786   5.652  12.675  0.00  0.00    +0.000 A 
ATOM     18  C   UNL     1      42.794   5.005  11.933  0.00  0.00    +0.000 A 
ATOM     19  C   UNL     1      43.125   3.939  11.092  0.00  0.00    +0.000 A 
ATOM     20  C   UNL     1      44.449   3.517  11.000  0.00  0.00    +0.000 A 
ATOM     21  C   UNL     1      45.441   4.168  11.738  0.00  0.00    +0.000 A 
BRANCH  20  22
ATOM     22  O   UNL     1      44.894   2.509  10.183  0.00  0.00    +0.000 OA
BRANCH  22  23
ATOM     23  C   UNL     1      44.885   2.708   8.753  0.00  0.00    +0.000 C 
ATOM     24  C   UNL     1      46.082   2.136   7.958  0.00  0.00    +0.000 C 
ATOM     25  C   UNL     1      46.240   3.488   7.251  0.00  0.00    +0.000 C 
ATOM     26  C   UNL     1      45.338   4.122   8.316  0.00  0.00    +0.000 C 
ENDBRANCH  22  23
ENDBRANCH  20  22
ENDBRANCH  15  16
ENDBRANCH  14  15
ENDBRANCH   5  14
TORSDOF 6
ENDMDL
MODEL 6
REMARK VINA RESULT:    -6.153      3.051      5.443
REMARK INTER + INTRA:          -9.179
REMARK INTER:                  -8.391
REMARK INTRA:                  -0.788
REMARK UNBOUND:                -0.867
REMARK  Name = 
REMARK  6 active torsions:
REMARK  status: ('A' for Active; 'I' for Inactive)
REMARK    1  A    between atoms: C_2  and  C_4
REMARK    2  A    between atoms: N_8  and  C_9
REMARK    3  A    between atoms: C_9  and  C_10
REMARK    4  A    between atoms: C_10  and  C_11
REMARK    5  A    between atoms: C_15  and  O_16
REMARK    6  A    between atoms: O_16  and  C_17
REMARK                            x       y       z     vdW  Elec       q    Type
REMARK                         _______ _______ _______ _____ _____    ______ ____
ROOT
ATOM      1  C   UNL     1      44.932   4.752  11.365  0.00  0.00    +0.000 A 
ATOM      2  C   UNL     1      45.501   4.172  12.492  0.00  0.00    +0.000 A 
ATOM      3  C   UNL     1      46.351   4.935  13.292  0.00  0.00    +0.000 A 
ATOM      4  C   UNL     1      46.635   6.254  12.943  0.00  0.00    +0.000 A 
ATOM      5  N   UNL     1      47.394   7.099  13.739  0.00  0.00    +0.000 N 
ATOM      6  N   UNL     1      46.120   6.813  11.832  0.00  0.00    +0.000 NA
ATOM      7  C   UNL     1      45.288   6.058  11.063  0.00  0.00    +0.000 A 
ATOM      8  H   UNL     1      47.576   7.936  13.188  0.00  0.00    +0.000 HD
ENDROOT
BRANCH   1  10
ATOM      9  N   UNL     1      43.952   4.388   9.177  0.00  0.00    +0.000 N 
ATOM     10  C   UNL     1      43.968   4.042  10.501  0.00  0.00    +0.000 C 
ATOM     11  O   UNL     1      43.248   3.157  10.936  0.00  0.00    +0.000 OA
ATOM     12  H   UNL     1      43.376   3.816   8.571  0.00  0.00    +0.000 HD
ATOM     13  H   UNL     1      44.697   4.915   8.744  0.00  0.00    +0.000 HD
ENDBRANCH   1  10
BRANCH   5  14
ATOM     14  C   UNL     1      48.529   6.547  14.462  0.00  0.00    +0.000 C 
BRANCH  14  15
ATOM     15  C   UNL     1      48.388   6.790  15.969  0.00  0.00    +0.000 C 
BRANCH  15  16
ATOM     16  C   UNL     1      48.442   5.487  16.729  0.00  0.00    +0.000 A 
ATOM     17  C   UNL     1      47.315   4.659  16.809  0.00  0.00    +0.000 A 
ATOM     18  C   UNL     1      47.390   3.423  17.455  0.00  0.00    +0.000 A 
ATOM     19  C   UNL     1      48.592   2.999  18.029  0.00  0.00    +0.000 A 
ATOM     20  C   UNL     1      49.716   3.817  17.960  0.00  0.00    +0.000 A 
ATOM     21  C   UNL     1      49.643   5.051  17.308  0.00  0.00    +0.000 A 
BRANCH  20  22
ATOM     22  O   UNL     1      50.954   3.489  18.454  0.00  0.00    +0.000 OA
BRANCH  22  23
ATOM     23  C   UNL     1      51.855   2.714  17.634  0.00  0.00    +0.000 C 
ATOM     24  C   UNL     1      51.502   1.224  17.419  0.00  0.00    +0.000 C 
ATOM     25  C   UNL     1      52.939   0.844  17.800  0.00  0.00    +0.000 C 
ATOM     26  C   UNL     1      53.132   2.250  18.377  0.00  0.00    +0.000 C 
ENDBRANCH  22  23
ENDBRANCH  20  22
ENDBRANCH  15  16
ENDBRANCH  14  15
ENDBRANCH   5  14
TORSDOF 6
ENDMDL
MODEL 7
REMARK VINA RESULT:    -6.068      3.141      4.975
REMARK INTER + INTRA:          -9.064
REMARK INTER:                  -7.916
REMARK INTRA:                  -1.148
REMARK UNBOUND:                -0.867
REMARK  Name = 
REMARK  6 active torsions:
REMARK  status: ('A' for Active; 'I' for Inactive)
REMARK    1  A    between atoms: C_2  and  C_4
REMARK    2  A    between atoms: N_8  and  C_9
REMARK    3  A    between atoms: C_9  and  C_10
REMARK    4  A    between atoms: C_10  and  C_11
REMARK    5  A    between atoms: C_15  and  O_16
REMARK    6  A    between atoms: O_16  and  C_17
REMARK                            x       y       z     vdW  Elec       q    Type
REMARK                         _______ _______ _______ _____ _____    ______ ____
ROOT
ATOM      1  C   UNL     1      44.928   4.430  11.942  0.00  0.00    +0.000 A 
ATOM      2  C   UNL     1      45.639   4.661  13.114  0.00  0.00    +0.000 A 
ATOM      3  C   UNL     1      46.609   5.662  13.132  0.00  0.00    +0.000 A 
ATOM      4  C   UNL     1      46.869   6.399  11.978  0.00  0.00    +0.000 A 
ATOM      5  N   UNL     1      47.751   7.469  11.948  0.00  0.00    +0.000 N 
ATOM      6  N   UNL     1      46.214   6.156  10.827  0.00  0.00    +0.000 NA
ATOM      7  C   UNL     1      45.265   5.180  10.825  0.00  0.00    +0.000 A 
ATOM      8  H   UNL     1      47.870   7.723  10.968  0.00  0.00    +0.000 HD
ENDROOT
BRANCH   1  10
ATOM      9  N   UNL     1      43.905   2.364  12.697  0.00  0.00    +0.000 N 
ATOM     10  C   UNL     1      43.836   3.440  11.852  0.00  0.00    +0.000 C 
ATOM     11  O   UNL     1      42.893   3.592  11.091  0.00  0.00    +0.000 OA
ATOM     12  H   UNL     1      43.096   1.755  12.713  0.00  0.00    +0.000 HD
ATOM     13  H   UNL     1      44.516   2.343  13.500  0.00  0.00    +0.000 HD
ENDBRANCH   1  10
BRANCH   5  14
ATOM     14  C   UNL     1      48.966   7.397  12.746  0.00  0.00    +0.000 C 
BRANCH  14  15
ATOM     15  C   UNL     1      49.126   8.653  13.610  0.00  0.00    +0.000 C 
BRANCH  15  16
ATOM     16  C   UNL     1      48.986   8.317  15.075  0.00  0.00    +0.000 A 
ATOM     17  C   UNL     1      48.420   9.236  15.967  0.00  0.00    +0.000 A 
ATOM     18  C   UNL     1      48.230   8.893  17.308  0.00  0.00    +0.000 A 
ATOM     19  C   UNL     1      48.604   7.629  17.773  0.00  0.00    +0.000 A 
ATOM     20  C   UNL     1      49.173   6.711  16.895  0.00  0.00    +0.000 A 
ATOM     21  C   UNL     1      49.357   7.051  15.552  0.00  0.00    +0.000 A 
BRANCH  20  22
ATOM     22  O   UNL     1      49.543   5.433  17.230  0.00  0.00    +0.000 OA
BRANCH  22  23
ATOM     23  C   UNL     1      48.600   4.586  17.922  0.00  0.00    +0.000 C 
ATOM     24  C   UNL     1      48.849   3.061  17.859  0.00  0.00    +0.000 C 
ATOM     25  C   UNL     1      47.383   2.854  17.455  0.00  0.00    +0.000 C 
ATOM     26  C   UNL     1      47.284   4.351  17.143  0.00  0.00    +0.000 C 
ENDBRANCH  22  23
ENDBRANCH  20  22
ENDBRANCH  15  16
ENDBRANCH  14  15
ENDBRANCH   5  14
TORSDOF 6
ENDMDL
MODEL 8
REMARK VINA RESULT:    -6.060      4.153      7.356
REMARK INTER + INTRA:          -9.052
REMARK INTER:                  -8.012
REMARK INTRA:                  -1.040
REMARK UNBOUND:                -0.867
REMARK  Name = 
REMARK  6 active torsions:
REMARK  status: ('A' for Active; 'I' for Inactive)
REMARK    1  A    between atoms: C_2  and  C_4
REMARK    2  A    between atoms: N_8  and  C_9
REMARK    3  A    between atoms: C_9  and  C_10
REMARK    4  A    between atoms: C_10  and  C_11
REMARK    5  A    between atoms: C_15  and  O_16
REMARK    6  A    between atoms: O_16  and  C_17
REMARK                            x       y       z     vdW  Elec       q    Type
REMARK                         _______ _______ _______ _____ _____    ______ ____
ROOT
ATOM      1  C   UNL     1      48.147   4.496  16.885  0.00  0.00    +0.000 A 
ATOM      2  C   UNL     1      47.424   4.998  15.810  0.00  0.00    +0.000 A 
ATOM      3  C   UNL     1      47.992   5.995  15.018  0.00  0.00    +0.000 A 
ATOM      4  C   UNL     1      49.258   6.488  15.323  0.00  0.00    +0.000 A 
ATOM      5  N   UNL     1      49.923   7.409  14.527  0.00  0.00    +0.000 N 
ATOM      6  N   UNL     1      49.951   6.036  16.386  0.00  0.00    +0.000 NA
ATOM      7  C   UNL     1      49.387   5.058  17.148  0.00  0.00    +0.000 A 
ATOM      8  H   UNL     1      50.743   7.711  15.050  0.00  0.00    +0.000 HD
ENDROOT
BRANCH   1  10
ATOM      9  N   UNL     1      48.398   3.083  18.842  0.00  0.00    +0.000 N 
ATOM     10  C   UNL     1      47.654   3.393  17.735  0.00  0.00    +0.000 C 
ATOM     11  O   UNL     1      46.609   2.811  17.487  0.00  0.00    +0.000 OA
ATOM     12  H   UNL     1      47.992   2.411  19.481  0.00  0.00    +0.000 HD
ATOM     13  H   UNL     1      49.107   3.702  19.209  0.00  0.00    +0.000 HD
ENDBRANCH   1  10
BRANCH   5  14
ATOM     14  C   UNL     1      49.151   8.459  13.879  0.00  0.00    +0.000 C 
BRANCH  14  15
ATOM     15  C   UNL     1      48.928   8.138  12.397  0.00  0.00    +0.000 C 
BRANCH  15  16
ATOM     16  C   UNL     1      47.460   7.925  12.111  0.00  0.00    +0.000 A 
ATOM     17  C   UNL     1      46.533   8.951  12.333  0.00  0.00    +0.000 A 
ATOM     18  C   UNL     1      45.189   8.772  12.002  0.00  0.00    +0.000 A 
ATOM     19  C   UNL     1      44.753   7.566  11.446  0.00  0.00    +0.000 A 
ATOM     20  C   UNL     1      45.666   6.538  11.226  0.00  0.00    +0.000 A 
ATOM     21  C   UNL     1      47.013   6.720  11.551  0.00  0.00    +0.000 A 
BRANCH  20  22
ATOM     22  O   UNL     1      45.361   5.329  10.654  0.00  0.00    +0.000 OA
BRANCH  22  23
ATOM     23  C   UNL     1      44.768   4.295  11.469  0.00  0.00    +0.000 C 
ATOM     24  C   UNL     1      43.225   4.289  11.582  0.00  0.00    +0.000 C 
ATOM     25  C   UNL     1      43.353   4.182  13.107  0.00  0.00    +0.000 C 
ATOM     26  C   UNL     1      44.826   4.587  12.988  0.00  0.00    +0.000 C 
ENDBRANCH  22  23
ENDBRANCH  20  22
ENDBRANCH  15  16
ENDBRANCH  14  15
ENDBRANCH   5  14
TORSDOF 6
ENDMDL
MODEL 9
REMARK VINA RESULT:    -6.047      2.884      4.823
REMARK INTER + INTRA:          -9.035
REMARK INTER:                  -8.247
REMARK INTRA:                  -0.788
REMARK UNBOUND:                -0.867
REMARK  Name = 
REMARK  6 active torsions:
REMARK  status: ('A' for Active; 'I' for Inactive)
REMARK    1  A    between atoms: C_2  and  C_4
REMARK    2  A    between atoms: N_8  and  C_9
REMARK    3  A    between atoms: C_9  and  C_10
REMARK    4  A    between atoms: C_10  and  C_11
REMARK    5  A    between atoms: C_15  and  O_16
REMARK    6  A    between atoms: O_16  and  C_17
REMARK                            x       y       z     vdW  Elec       q    Type
REMARK                         _______ _______ _______ _____ _____    ______ ____
ROOT
ATOM      1  C   UNL     1      44.707   5.126  10.901  0.00  0.00    +0.000 A 
ATOM      2  C   UNL     1      45.931   5.686  10.559  0.00  0.00    +0.000 A 
ATOM      3  C   UNL     1      46.556   6.550  11.458  0.00  0.00    +0.000 A 
ATOM      4  C   UNL     1      45.939   6.857  12.669  0.00  0.00    +0.000 A 
ATOM      5  N   UNL     1      46.542   7.632  13.649  0.00  0.00    +0.000 N 
ATOM      6  N   UNL     1      44.734   6.351  12.993  0.00  0.00    +0.000 NA
ATOM      7  C   UNL     1      44.139   5.504  12.109  0.00  0.00    +0.000 A 
ATOM      8  H   UNL     1      45.829   7.828  14.349  0.00  0.00    +0.000 HD
ENDROOT
BRANCH   1  10
ATOM      9  N   UNL     1      44.076   4.352   8.690  0.00  0.00    +0.000 N 
ATOM     10  C   UNL     1      44.008   4.148  10.043  0.00  0.00    +0.000 C 
ATOM     11  O   UNL     1      43.432   3.179  10.512  0.00  0.00    +0.000 OA
ATOM     12  H   UNL     1      43.698   3.615   8.107  0.00  0.00    +0.000 HD
ATOM     13  H   UNL     1      44.747   4.978   8.269  0.00  0.00    +0.000 HD
ENDBRANCH   1  10
BRANCH   5  14
ATOM     14  C   UNL     1      47.368   8.759  13.240  0.00  0.00    +0.000 C 
BRANCH  14  15
ATOM     15  C   UNL     1      48.775   8.651  13.839  0.00  0.00    +0.000 C 
BRANCH  15  16
ATOM     16  C   UNL     1      48.706   8.484  15.338  0.00  0.00    +0.000 A 
ATOM     17  C   UNL     1      48.302   9.545  16.158  0.00  0.00    +0.000 A 
ATOM     18  C   UNL     1      48.175   9.365  17.537  0.00  0.00    +0.000 A 
ATOM     19  C   UNL     1      48.451   8.122  18.114  0.00  0.00    +0.000 A 
ATOM     20  C   UNL     1      48.859   7.063  17.309  0.00  0.00    +0.000 A 
ATOM     21  C   UNL     1      48.980   7.242  15.928  0.00  0.00    +0.000 A 
BRANCH  20  22
ATOM     22  O   UNL     1      49.121   5.793  17.759  0.00  0.00    +0.000 OA
BRANCH  22  23
ATOM     23  C   UNL     1      48.586   4.665  17.033  0.00  0.00    +0.000 C 
ATOM     24  C   UNL     1      47.116   4.279  17.321  0.00  0.00    +0.000 C 
ATOM     25  C   UNL     1      47.552   2.819  17.507  0.00  0.00    +0.000 C 
ATOM     26  C   UNL     1      49.006   3.293  17.615  0.00  0.00    +0.000 C 
ENDBRANCH  22  23
ENDBRANCH  20  22
ENDBRANCH  15  16
ENDBRANCH  14  15
ENDBRANCH   5  14
TORSDOF 6
ENDMDL
