MODEL 1
REMARK VINA RESULT:    -8.273      0.000      0.000
REMARK INTER + INTRA:         -12.991
REMARK INTER:                 -12.384
REMARK INTRA:                  -0.606
REMARK UNBOUND:                -0.606
REMARK  Name = 
REMARK  9 active torsions:
REMARK  status: ('A' for Active; 'I' for Inactive)
REMARK    1  A    between atoms: C_2  and  C_22
REMARK    2  A    between atoms: N_3  and  C_4
REMARK    3  A    between atoms: C_4  and  C_5
REMARK    4  A    between atoms: C_8  and  C_9
REMARK    5  A    between atoms: C_9  and  N_10
REMARK    6  A    between atoms: N_10  and  CA_11
REMARK    7  A    between atoms: CA_11  and  C_12
REMARK    8  A    between atoms: CA_11  and  C_14
REMARK    9  A    between atoms: C_12  and  O_13
REMARK                            x       y       z     vdW  Elec       q    Type
REMARK                         _______ _______ _______ _____ _____    ______ ____
ROOT
ATOM      1  C   UNL     1      46.430   7.588  12.865  0.00  0.00    +0.000 A 
ATOM      2  C   UNL     1      45.369   8.222  12.204  0.00  0.00    +0.000 A 
ATOM      3  C   UNL     1      44.444   7.476  11.469  0.00  0.00    +0.000 A 
ATOM      4  C   UNL     1      44.556   6.082  11.389  0.00  0.00    +0.000 A 
ATOM      5  C   UNL     1      45.611   5.449  12.059  0.00  0.00    +0.000 A 
ATOM      6  C   UNL     1      46.534   6.194  12.797  0.00  0.00    +0.000 A 
ENDROOT
BRANCH   1   7
ATOM      7  C   UNL     1      47.408   8.388  13.684  0.00  0.00    +0.000 C 
BRANCH   7  10
ATOM      8  O   UNL     1      49.769   6.931  14.013  0.00  0.00    +0.000 OA
ATOM      9  C   UNL     1      48.980   6.987  14.947  0.00  0.00    +0.000 C 
ATOM     10  N   UNL     1      47.783   7.659  14.871  0.00  0.00    +0.000 N 
ATOM     11  H   UNL     1      47.217   7.795  15.694  0.00  0.00    +0.000 HD
BRANCH   9  12
ATOM     12  C   UNL     1      49.241   6.346  16.223  0.00  0.00    +0.000 A 
ATOM     13  C   UNL     1      50.144   6.688  17.254  0.00  0.00    +0.000 A 
ATOM     14  N   UNL     1      50.117   5.847  18.289  0.00  0.00    +0.000 NA
ATOM     15  N   UNL     1      49.178   4.935  17.952  0.00  0.00    +0.000 N 
ATOM     16  C   UNL     1      48.752   3.827  18.662  0.00  0.00    +0.000 A 
ATOM     17  C   UNL     1      47.797   3.048  18.136  0.00  0.00    +0.000 A 
ATOM     18  N   UNL     1      47.199   3.289  16.914  0.00  0.00    +0.000 NA
ATOM     19  C   UNL     1      47.595   4.333  16.235  0.00  0.00    +0.000 A 
ATOM     20  C   UNL     1      48.622   5.214  16.723  0.00  0.00    +0.000 A 
ENDBRANCH   9  12
ENDBRANCH   7  10
ENDBRANCH   1   7
BRANCH   4  21
ATOM     21  C   UNL     1      43.554   5.271  10.598  0.00  0.00    +0.000 C 
BRANCH  21  22
ATOM     22  N   UNL     1      44.168   4.704   9.402  0.00  0.00    +0.000 NA
ATOM     23  H   UNL     1      45.129   5.043   9.353  0.00  0.00    +0.000 HD
BRANCH  22  24
ATOM     24  CA  UNL     1      44.225   3.220   9.423  0.00  0.00    +0.000 C 
BRANCH  24  25
ATOM     25  C   UNL     1      45.345   2.716   8.505  0.00  0.00    +0.000 A 
ATOM     26  C   UNL     1      45.891   3.540   7.516  0.00  0.00    +0.000 A 
ATOM     27  C   UNL     1      46.836   3.020   6.637  0.00  0.00    +0.000 A 
ATOM     28  C   UNL     1      47.220   1.692   6.761  0.00  0.00    +0.000 A 
ATOM     29  C   UNL     1      46.655   0.945   7.780  0.00  0.00    +0.000 A 
ATOM     30  N   UNL     1      45.741   1.424   8.655  0.00  0.00    +0.000 NA
ENDBRANCH  24  25
BRANCH  24  31
ATOM     31  C   UNL     1      44.361   2.619  10.847  0.00  0.00    +0.000 C 
BRANCH  31  32
ATOM     32  O   UNL     1      43.131   2.036  11.294  0.00  0.00    +0.000 OA
ATOM     33  H   UNL     1      43.366   1.308  11.896  0.00  0.00    +0.000 HD
ENDBRANCH  31  32
ENDBRANCH  24  31
ENDBRANCH  22  24
ENDBRANCH  21  22
ENDBRANCH   4  21
TORSDOF 9
ENDMDL
MODEL 2
REMARK VINA RESULT:    -7.871      1.311      1.863
REMARK INTER + INTRA:         -12.389
REMARK INTER:                 -11.351
REMARK INTRA:                  -1.038
REMARK UNBOUND:                -0.606
REMARK  Name = 
REMARK  9 active torsions:
REMARK  status: ('A' for Active; 'I' for Inactive)
REMARK    1  A    between atoms: C_2  and  C_22
REMARK    2  A    between atoms: N_3  and  C_4
REMARK    3  A    between atoms: C_4  and  C_5
REMARK    4  A    between atoms: C_8  and  C_9
REMARK    5  A    between atoms: C_9  and  N_10
REMARK    6  A    between atoms: N_10  and  CA_11
REMARK    7  A    between atoms: CA_11  and  C_12
REMARK    8  A    between atoms: CA_11  and  C_14
REMARK    9  A    between atoms: C_12  and  O_13
REMARK                            x       y       z     vdW  Elec       q    Type
REMARK                         _______ _______ _______ _____ _____    ______ ____
ROOT
ATOM      1  C   UNL     1      47.528   7.893  12.675  0.00  0.00    +0.000 A 
ATOM      2  C   UNL     1      47.530   6.506  12.475  0.00  0.00    +0.000 A 
ATOM      3  C   UNL     1      46.365   5.844  12.079  0.00  0.00    +0.000 A 
ATOM      4  C   UNL     1      45.178   6.556  11.866  0.00  0.00    +0.000 A 
ATOM      5  C   UNL     1      45.180   7.945  12.057  0.00  0.00    +0.000 A 
ATOM      6  C   UNL     1      46.345   8.608  12.450  0.00  0.00    +0.000 A 
ENDROOT
BRANCH   1   7
ATOM      7  C   UNL     1      48.791   8.611  13.070  0.00  0.00    +0.000 C 
BRANCH   7  10
ATOM      8  O   UNL     1      48.587   8.470  15.853  0.00  0.00    +0.000 OA
ATOM      9  C   UNL     1      49.408   7.759  15.288  0.00  0.00    +0.000 C 
ATOM     10  N   UNL     1      49.597   7.777  13.927  0.00  0.00    +0.000 N 
ATOM     11  H   UNL     1      50.186   7.090  13.481  0.00  0.00    +0.000 HD
BRANCH   9  12
ATOM     12  C   UNL     1      50.259   6.830  16.011  0.00  0.00    +0.000 A 
ATOM     13  C   UNL     1      51.659   6.824  16.197  0.00  0.00    +0.000 A 
ATOM     14  N   UNL     1      52.098   5.791  16.918  0.00  0.00    +0.000 NA
ATOM     15  N   UNL     1      50.976   5.102  17.227  0.00  0.00    +0.000 N 
ATOM     16  C   UNL     1      50.852   3.931  17.954  0.00  0.00    +0.000 A 
ATOM     17  C   UNL     1      49.630   3.413  18.142  0.00  0.00    +0.000 A 
ATOM     18  N   UNL     1      48.471   3.986  17.654  0.00  0.00    +0.000 NA
ATOM     19  C   UNL     1      48.579   5.091  16.966  0.00  0.00    +0.000 A 
ATOM     20  C   UNL     1      49.853   5.707  16.708  0.00  0.00    +0.000 A 
ENDBRANCH   9  12
ENDBRANCH   7  10
ENDBRANCH   1   7
BRANCH   4  21
ATOM     21  C   UNL     1      43.917   5.844  11.433  0.00  0.00    +0.000 C 
BRANCH  21  22
ATOM     22  N   UNL     1      44.032   5.365  10.060  0.00  0.00    +0.000 NA
ATOM     23  H   UNL     1      44.961   5.614   9.720  0.00  0.00    +0.000 HD
BRANCH  22  24
ATOM     24  CA  UNL     1      43.899   3.891   9.944  0.00  0.00    +0.000 C 
BRANCH  24  25
ATOM     25  C   UNL     1      44.920   3.341   8.942  0.00  0.00    +0.000 A 
ATOM     26  C   UNL     1      45.267   1.986   8.938  0.00  0.00    +0.000 A 
ATOM     27  C   UNL     1      46.269   1.538   8.082  0.00  0.00    +0.000 A 
ATOM     28  C   UNL     1      46.905   2.446   7.247  0.00  0.00    +0.000 A 
ATOM     29  C   UNL     1      46.491   3.767   7.289  0.00  0.00    +0.000 A 
ATOM     30  N   UNL     1      45.515   4.231   8.103  0.00  0.00    +0.000 NA
ENDBRANCH  24  25
BRANCH  24  31
ATOM     31  C   UNL     1      43.996   3.145  11.301  0.00  0.00    +0.000 C 
BRANCH  31  32
ATOM     32  O   UNL     1      42.811   2.387  11.573  0.00  0.00    +0.000 OA
ATOM     33  H   UNL     1      42.774   2.256  12.537  0.00  0.00    +0.000 HD
ENDBRANCH  31  32
ENDBRANCH  24  31
ENDBRANCH  22  24
ENDBRANCH  21  22
ENDBRANCH   4  21
TORSDOF 9
ENDMDL
MODEL 3
REMARK VINA RESULT:    -7.740      1.644      2.076
REMARK INTER + INTRA:         -12.192
REMARK INTER:                 -11.652
REMARK INTRA:                  -0.540
REMARK UNBOUND:                -0.606
REMARK  Name = 
REMARK  9 active torsions:
REMARK  status: ('A' for Active; 'I' for Inactive)
REMARK    1  A    between atoms: C_2  and  C_22
REMARK    2  A    between atoms: N_3  and  C_4
REMARK    3  A    between atoms: C_4  and  C_5
REMARK    4  A    between atoms: C_8  and  C_9
REMARK    5  A    between atoms: C_9  and  N_10
REMARK    6  A    between atoms: N_10  and  CA_11
REMARK    7  A    between atoms: CA_11  and  C_12
REMARK    8  A    between atoms: CA_11  and  C_14
REMARK    9  A    between atoms: C_12  and  O_13
REMARK                            x       y       z     vdW  Elec       q    Type
REMARK                         _______ _______ _______ _____ _____    ______ ____
ROOT
ATOM      1  C   UNL     1      47.341   6.719  13.215  0.00  0.00    +0.000 A 
ATOM      2  C   UNL     1      46.870   7.415  12.094  0.00  0.00    +0.000 A 
ATOM      3  C   UNL     1      45.695   7.015  11.451  0.00  0.00    +0.000 A 
ATOM      4  C   UNL     1      44.964   5.918  11.923  0.00  0.00    +0.000 A 
ATOM      5  C   UNL     1      45.430   5.229  13.050  0.00  0.00    +0.000 A 
ATOM      6  C   UNL     1      46.603   5.630  13.695  0.00  0.00    +0.000 A 
ENDROOT
BRANCH   1   7
ATOM      7  C   UNL     1      48.588   7.169  13.928  0.00  0.00    +0.000 C 
BRANCH   7  10
ATOM      8  O   UNL     1      50.006   6.003  16.034  0.00  0.00    +0.000 OA
ATOM      9  C   UNL     1      49.088   6.770  16.299  0.00  0.00    +0.000 C 
ATOM     10  N   UNL     1      48.320   7.372  15.331  0.00  0.00    +0.000 N 
ATOM     11  H   UNL     1      47.659   8.094  15.575  0.00  0.00    +0.000 HD
BRANCH   9  12
ATOM     12  C   UNL     1      48.731   7.112  17.663  0.00  0.00    +0.000 A 
ATOM     13  C   UNL     1      48.379   8.354  18.235  0.00  0.00    +0.000 A 
ATOM     14  N   UNL     1      48.123   8.288  19.543  0.00  0.00    +0.000 NA
ATOM     15  N   UNL     1      48.296   6.982  19.849  0.00  0.00    +0.000 N 
ATOM     16  C   UNL     1      48.171   6.357  21.076  0.00  0.00    +0.000 A 
ATOM     17  C   UNL     1      48.392   5.037  21.156  0.00  0.00    +0.000 A 
ATOM     18  N   UNL     1      48.735   4.251  20.073  0.00  0.00    +0.000 NA
ATOM     19  C   UNL     1      48.857   4.833  18.910  0.00  0.00    +0.000 A 
ATOM     20  C   UNL     1      48.649   6.247  18.739  0.00  0.00    +0.000 A 
ENDBRANCH   9  12
ENDBRANCH   7  10
ENDBRANCH   1   7
BRANCH   4  21
ATOM     21  C   UNL     1      43.690   5.485  11.233  0.00  0.00    +0.000 C 
BRANCH  21  22
ATOM     22  N   UNL     1      43.961   5.028   9.874  0.00  0.00    +0.000 NA
ATOM     23  H   UNL     1      44.888   5.361   9.611  0.00  0.00    +0.000 HD
BRANCH  22  24
ATOM     24  CA  UNL     1      43.972   3.549   9.747  0.00  0.00    +0.000 C 
BRANCH  24  25
ATOM     25  C   UNL     1      45.052   3.106   8.754  0.00  0.00    +0.000 A 
ATOM     26  C   UNL     1      45.508   1.785   8.728  0.00  0.00    +0.000 A 
ATOM     27  C   UNL     1      46.559   1.440   7.883  0.00  0.00    +0.000 A 
ATOM     28  C   UNL     1      47.133   2.415   7.080  0.00  0.00    +0.000 A 
ATOM     29  C   UNL     1      46.612   3.696   7.142  0.00  0.00    +0.000 A 
ATOM     30  N   UNL     1      45.587   4.061   7.946  0.00  0.00    +0.000 NA
ENDBRANCH  24  25
BRANCH  24  31
ATOM     31  C   UNL     1      44.125   2.806  11.101  0.00  0.00    +0.000 C 
BRANCH  31  32
ATOM     32  O   UNL     1      42.923   2.117  11.465  0.00  0.00    +0.000 OA
ATOM     33  H   UNL     1      42.186   2.589  11.038  0.00  0.00    +0.000 HD
ENDBRANCH  31  32
ENDBRANCH  24  31
ENDBRANCH  22  24
ENDBRANCH  21  22
ENDBRANCH   4  21
TORSDOF 9
ENDMDL
MODEL 4
REMARK VINA RESULT:    -7.525      1.808      2.535
REMARK INTER + INTRA:         -11.871
REMARK INTER:                 -10.761
REMARK INTRA:                  -1.110
REMARK UNBOUND:                -0.606
REMARK  Name = 
REMARK  9 active torsions:
REMARK  status: ('A' for Active; 'I' for Inactive)
REMARK    1  A    between atoms: C_2  and  C_22
REMARK    2  A    between atoms: N_3  and  C_4
REMARK    3  A    between atoms: C_4  and  C_5
REMARK    4  A    between atoms: C_8  and  C_9
REMARK    5  A    between atoms: C_9  and  N_10
REMARK    6  A    between atoms: N_10  and  CA_11
REMARK    7  A    between atoms: CA_11  and  C_12
REMARK    8  A    between atoms: CA_11  and  C_14
REMARK    9  A    between atoms: C_12  and  O_13
REMARK                            x       y       z     vdW  Elec       q    Type
REMARK                         _______ _______ _______ _____ _____    ______ ____
ROOT
ATOM      1  C   UNL     1      47.512   7.441  13.536  0.00  0.00    +0.000 A 
ATOM      2  C   UNL     1      46.397   8.240  13.247  0.00  0.00    +0.000 A 
ATOM      3  C   UNL     1      45.376   7.763  12.421  0.00  0.00    +0.000 A 
ATOM      4  C   UNL     1      45.444   6.475  11.876  0.00  0.00    +0.000 A 
ATOM      5  C   UNL     1      46.554   5.672  12.174  0.00  0.00    +0.000 A 
ATOM      6  C   UNL     1      47.574   6.148  13.002  0.00  0.00    +0.000 A 
ENDROOT
BRANCH   1   7
ATOM      7  C   UNL     1      48.596   7.941  14.451  0.00  0.00    +0.000 C 
BRANCH   7  10
ATOM      8  O   UNL     1      48.826   7.628  17.218  0.00  0.00    +0.000 OA
ATOM      9  C   UNL     1      49.285   6.758  16.490  0.00  0.00    +0.000 C 
ATOM     10  N   UNL     1      49.240   6.836  15.118  0.00  0.00    +0.000 N 
ATOM     11  H   UNL     1      49.509   6.047  14.550  0.00  0.00    +0.000 HD
BRANCH   9  12
ATOM     12  C   UNL     1      49.919   5.562  17.014  0.00  0.00    +0.000 A 
ATOM     13  C   UNL     1      49.355   4.353  17.479  0.00  0.00    +0.000 A 
ATOM     14  N   UNL     1      50.259   3.469  17.905  0.00  0.00    +0.000 NA
ATOM     15  N   UNL     1      51.445   4.090  17.713  0.00  0.00    +0.000 N 
ATOM     16  C   UNL     1      52.718   3.630  17.996  0.00  0.00    +0.000 A 
ATOM     17  C   UNL     1      53.768   4.419  17.723  0.00  0.00    +0.000 A 
ATOM     18  N   UNL     1      53.654   5.678  17.165  0.00  0.00    +0.000 NA
ATOM     19  C   UNL     1      52.455   6.121  16.896  0.00  0.00    +0.000 A 
ATOM     20  C   UNL     1      51.276   5.344  17.167  0.00  0.00    +0.000 A 
ENDBRANCH   9  12
ENDBRANCH   7  10
ENDBRANCH   1   7
BRANCH   4  21
ATOM     21  C   UNL     1      44.339   5.953  10.986  0.00  0.00    +0.000 C 
BRANCH  21  22
ATOM     22  N   UNL     1      44.883   5.376   9.761  0.00  0.00    +0.000 NA
ATOM     23  H   UNL     1      45.893   5.297   9.875  0.00  0.00    +0.000 HD
BRANCH  22  24
ATOM     24  CA  UNL     1      44.363   4.014   9.478  0.00  0.00    +0.000 C 
BRANCH  24  25
ATOM     25  C   UNL     1      45.382   3.213   8.660  0.00  0.00    +0.000 A 
ATOM     26  C   UNL     1      46.212   3.844   7.727  0.00  0.00    +0.000 A 
ATOM     27  C   UNL     1      47.056   3.075   6.931  0.00  0.00    +0.000 A 
ATOM     28  C   UNL     1      47.059   1.695   7.081  0.00  0.00    +0.000 A 
ATOM     29  C   UNL     1      46.228   1.144   8.041  0.00  0.00    +0.000 A 
ATOM     30  N   UNL     1      45.403   1.865   8.836  0.00  0.00    +0.000 NA
ENDBRANCH  24  25
BRANCH  24  31
ATOM     31  C   UNL     1      43.932   3.232  10.747  0.00  0.00    +0.000 C 
BRANCH  31  32
ATOM     32  O   UNL     1      45.064   2.734  11.471  0.00  0.00    +0.000 OA
ATOM     33  H   UNL     1      45.722   3.452  11.495  0.00  0.00    +0.000 HD
ENDBRANCH  31  32
ENDBRANCH  24  31
ENDBRANCH  22  24
ENDBRANCH  21  22
ENDBRANCH   4  21
TORSDOF 9
ENDMDL
MODEL 5
REMARK VINA RESULT:    -7.473      2.309      2.532
REMARK INTER + INTRA:         -11.793
REMARK INTER:                 -10.807
REMARK INTRA:                  -0.986
REMARK UNBOUND:                -0.606
REMARK  Name = 
REMARK  9 active torsions:
REMARK  status: ('A' for Active; 'I' for Inactive)
REMARK    1  A    between atoms: C_2  and  C_22
REMARK    2  A    between atoms: N_3  and  C_4
REMARK    3  A    between atoms: C_4  and  C_5
REMARK    4  A    between atoms: C_8  and  C_9
REMARK    5  A    between atoms: C_9  and  N_10
REMARK    6  A    between atoms: N_10  and  CA_11
REMARK    7  A    between atoms: CA_11  and  C_12
REMARK    8  A    between atoms: CA_11  and  C_14
REMARK    9  A    between atoms: C_12  and  O_13
REMARK                            x       y       z     vdW  Elec       q    Type
REMARK                         _______ _______ _______ _____ _____    ______ ____
ROOT
ATOM      1  C   UNL     1      47.118   8.176  13.333  0.00  0.00    +0.000 A 
ATOM      2  C   UNL     1      45.953   8.760  12.818  0.00  0.00    +0.000 A 
ATOM      3  C   UNL     1      45.044   7.999  12.078  0.00  0.00    +0.000 A 
ATOM      4  C   UNL     1      45.278   6.638  11.846  0.00  0.00    +0.000 A 
ATOM      5  C   UNL     1      46.439   6.053  12.370  0.00  0.00    +0.000 A 
ATOM      6  C   UNL     1      47.346   6.812  13.113  0.00  0.00    +0.000 A 
ENDROOT
BRANCH   1   7
ATOM      7  C   UNL     1      48.081   8.987  14.159  0.00  0.00    +0.000 C 
BRANCH   7  10
ATOM      8  O   UNL     1      49.826   9.014  16.341  0.00  0.00    +0.000 OA
ATOM      9  C   UNL     1      48.620   9.013  16.554  0.00  0.00    +0.000 C 
ATOM     10  N   UNL     1      47.686   8.976  15.546  0.00  0.00    +0.000 N 
ATOM     11  H   UNL     1      46.707   9.106  15.748  0.00  0.00    +0.000 HD
BRANCH   9  12
ATOM     12  C   UNL     1      48.069   9.050  17.897  0.00  0.00    +0.000 A 
ATOM     13  C   UNL     1      47.522  10.124  18.634  0.00  0.00    +0.000 A 
ATOM     14  N   UNL     1      47.122   9.782  19.860  0.00  0.00    +0.000 NA
ATOM     15  N   UNL     1      47.396   8.461  19.942  0.00  0.00    +0.000 N 
ATOM     16  C   UNL     1      47.194   7.599  21.005  0.00  0.00    +0.000 A 
ATOM     17  C   UNL     1      47.543   6.312  20.870  0.00  0.00    +0.000 A 
ATOM     18  N   UNL     1      48.094   5.784  19.718  0.00  0.00    +0.000 NA
ATOM     19  C   UNL     1      48.290   6.591  18.710  0.00  0.00    +0.000 A 
ATOM     20  C   UNL     1      47.954   7.988  18.774  0.00  0.00    +0.000 A 
ENDBRANCH   9  12
ENDBRANCH   7  10
ENDBRANCH   1   7
BRANCH   4  21
ATOM     21  C   UNL     1      44.296   5.810  11.049  0.00  0.00    +0.000 C 
BRANCH  21  22
ATOM     22  N   UNL     1      44.923   5.267   9.849  0.00  0.00    +0.000 NA
ATOM     23  H   UNL     1      45.921   5.169  10.035  0.00  0.00    +0.000 HD
BRANCH  22  24
ATOM     24  CA  UNL     1      44.409   3.923   9.480  0.00  0.00    +0.000 C 
BRANCH  24  25
ATOM     25  C   UNL     1      45.439   3.174   8.626  0.00  0.00    +0.000 A 
ATOM     26  C   UNL     1      46.191   3.842   7.656  0.00  0.00    +0.000 A 
ATOM     27  C   UNL     1      47.045   3.115   6.831  0.00  0.00    +0.000 A 
ATOM     28  C   UNL     1      47.134   1.740   6.990  0.00  0.00    +0.000 A 
ATOM     29  C   UNL     1      46.377   1.151   7.989  0.00  0.00    +0.000 A 
ATOM     30  N   UNL     1      45.545   1.831   8.812  0.00  0.00    +0.000 NA
ENDBRANCH  24  25
BRANCH  24  31
ATOM     31  C   UNL     1      43.969   3.066  10.697  0.00  0.00    +0.000 C 
BRANCH  31  32
ATOM     32  O   UNL     1      45.092   2.639  11.477  0.00  0.00    +0.000 OA
ATOM     33  H   UNL     1      45.684   3.406  11.564  0.00  0.00    +0.000 HD
ENDBRANCH  31  32
ENDBRANCH  24  31
ENDBRANCH  22  24
ENDBRANCH  21  22
ENDBRANCH   4  21
TORSDOF 9
ENDMDL
MODEL 6
REMARK VINA RESULT:    -7.363      4.556      6.162
REMARK INTER + INTRA:         -11.629
REMARK INTER:                 -10.587
REMARK INTRA:                  -1.041
REMARK UNBOUND:                -0.606
REMARK  Name = 
REMARK  9 active torsions:
REMARK  status: ('A' for Active; 'I' for Inactive)
REMARK    1  A    between atoms: C_2  and  C_22
REMARK    2  A    between atoms: N_3  and  C_4
REMARK    3  A    between atoms: C_4  and  C_5
REMARK    4  A    between atoms: C_8  and  C_9
REMARK    5  A    between atoms: C_9  and  N_10
REMARK    6  A    between atoms: N_10  and  CA_11
REMARK    7  A    between atoms: CA_11  and  C_12
REMARK    8  A    between atoms: CA_11  and  C_14
REMARK    9  A    between atoms: C_12  and  O_13
REMARK                            x       y       z     vdW  Elec       q    Type
REMARK                         _______ _______ _______ _____ _____    ______ ____
ROOT
ATOM      1  C   UNL     1      48.198   6.860  12.701  0.00  0.00    +0.000 A 
ATOM      2  C   UNL     1      47.495   7.319  11.579  0.00  0.00    +0.000 A 
ATOM      3  C   UNL     1      46.204   6.855  11.311  0.00  0.00    +0.000 A 
ATOM      4  C   UNL     1      45.588   5.931  12.164  0.00  0.00    +0.000 A 
ATOM      5  C   UNL     1      46.288   5.481  13.292  0.00  0.00    +0.000 A 
ATOM      6  C   UNL     1      47.577   5.946  13.562  0.00  0.00    +0.000 A 
ENDROOT
BRANCH   1   7
ATOM      7  C   UNL     1      49.575   7.384  13.009  0.00  0.00    +0.000 C 
BRANCH   7  10
ATOM      8  O   UNL     1      51.572   9.195  12.277  0.00  0.00    +0.000 OA
ATOM      9  C   UNL     1      51.401   8.200  11.585  0.00  0.00    +0.000 C 
ATOM     10  N   UNL     1      50.428   7.266  11.852  0.00  0.00    +0.000 N 
ATOM     11  H   UNL     1      50.396   6.397  11.342  0.00  0.00    +0.000 HD
BRANCH   9  12
ATOM     12  C   UNL     1      52.214   7.918  10.416  0.00  0.00    +0.000 A 
ATOM     13  C   UNL     1      52.761   6.702   9.951  0.00  0.00    +0.000 A 
ATOM     14  N   UNL     1      53.476   6.830   8.831  0.00  0.00    +0.000 NA
ATOM     15  N   UNL     1      53.398   8.147   8.538  0.00  0.00    +0.000 N 
ATOM     16  C   UNL     1      53.971   8.834   7.482  0.00  0.00    +0.000 A 
ATOM     17  C   UNL     1      53.764  10.154   7.380  0.00  0.00    +0.000 A 
ATOM     18  N   UNL     1      52.999  10.881   8.272  0.00  0.00    +0.000 NA
ATOM     19  C   UNL     1      52.455  10.241   9.273  0.00  0.00    +0.000 A 
ATOM     20  C   UNL     1      52.636   8.827   9.462  0.00  0.00    +0.000 A 
ENDBRANCH   9  12
ENDBRANCH   7  10
ENDBRANCH   1   7
BRANCH   4  21
ATOM     21  C   UNL     1      44.190   5.430  11.880  0.00  0.00    +0.000 C 
BRANCH  21  22
ATOM     22  N   UNL     1      44.025   5.118  10.464  0.00  0.00    +0.000 NA
ATOM     23  H   UNL     1      44.833   5.489   9.966  0.00  0.00    +0.000 HD
BRANCH  22  24
ATOM     24  CA  UNL     1      43.969   3.660  10.191  0.00  0.00    +0.000 C 
BRANCH  24  25
ATOM     25  C   UNL     1      45.048   3.265   9.176  0.00  0.00    +0.000 A 
ATOM     26  C   UNL     1      45.640   4.222   8.347  0.00  0.00    +0.000 A 
ATOM     27  C   UNL     1      46.544   3.816   7.369  0.00  0.00    +0.000 A 
ATOM     28  C   UNL     1      46.840   2.467   7.237  0.00  0.00    +0.000 A 
ATOM     29  C   UNL     1      46.233   1.580   8.110  0.00  0.00    +0.000 A 
ATOM     30  N   UNL     1      45.358   1.945   9.076  0.00  0.00    +0.000 NA
ENDBRANCH  24  25
BRANCH  24  31
ATOM     31  C   UNL     1      44.059   2.780  11.466  0.00  0.00    +0.000 C 
BRANCH  31  32
ATOM     32  O   UNL     1      42.861   2.020  11.670  0.00  0.00    +0.000 OA
ATOM     33  H   UNL     1      42.138   2.514  11.245  0.00  0.00    +0.000 HD
ENDBRANCH  31  32
ENDBRANCH  24  31
ENDBRANCH  22  24
ENDBRANCH  21  22
ENDBRANCH   4  21
TORSDOF 9
ENDMDL
MODEL 7
REMARK VINA RESULT:    -7.195      2.058      8.402
REMARK INTER + INTRA:         -11.376
REMARK INTER:                  -9.786
REMARK INTRA:                  -1.590
REMARK UNBOUND:                -0.606
REMARK  Name = 
REMARK  9 active torsions:
REMARK  status: ('A' for Active; 'I' for Inactive)
REMARK    1  A    between atoms: C_2  and  C_22
REMARK    2  A    between atoms: N_3  and  C_4
REMARK    3  A    between atoms: C_4  and  C_5
REMARK    4  A    between atoms: C_8  and  C_9
REMARK    5  A    between atoms: C_9  and  N_10
REMARK    6  A    between atoms: N_10  and  CA_11
REMARK    7  A    between atoms: CA_11  and  C_12
REMARK    8  A    between atoms: CA_11  and  C_14
REMARK    9  A    between atoms: C_12  and  O_13
REMARK                            x       y       z     vdW  Elec       q    Type
REMARK                         _______ _______ _______ _____ _____    ______ ____
ROOT
ATOM      1  C   UNL     1      47.013   7.798  13.105  0.00  0.00    +0.000 A 
ATOM      2  C   UNL     1      47.257   8.809  14.045  0.00  0.00    +0.000 A 
ATOM      3  C   UNL     1      48.469   8.857  14.738  0.00  0.00    +0.000 A 
ATOM      4  C   UNL     1      49.465   7.902  14.499  0.00  0.00    +0.000 A 
ATOM      5  C   UNL     1      49.224   6.897  13.551  0.00  0.00    +0.000 A 
ATOM      6  C   UNL     1      48.014   6.850  12.856  0.00  0.00    +0.000 A 
ENDROOT
BRANCH   1   7
ATOM      7  C   UNL     1      45.721   7.764  12.334  0.00  0.00    +0.000 C 
BRANCH   7  10
ATOM      8  O   UNL     1      43.265   6.861  11.357  0.00  0.00    +0.000 OA
ATOM      9  C   UNL     1      44.206   6.079  11.389  0.00  0.00    +0.000 C 
ATOM     10  N   UNL     1      45.445   6.425  11.875  0.00  0.00    +0.000 N 
ATOM     11  H   UNL     1      46.230   5.802  11.769  0.00  0.00    +0.000 HD
BRANCH   9  12
ATOM     12  C   UNL     1      44.096   4.711  10.915  0.00  0.00    +0.000 A 
ATOM     13  C   UNL     1      43.361   3.619  11.428  0.00  0.00    +0.000 A 
ATOM     14  N   UNL     1      43.515   2.495  10.727  0.00  0.00    +0.000 NA
ATOM     15  N   UNL     1      44.356   2.840   9.727  0.00  0.00    +0.000 N 
ATOM     16  C   UNL     1      44.862   2.051   8.710  0.00  0.00    +0.000 A 
ATOM     17  C   UNL     1      45.691   2.603   7.813  0.00  0.00    +0.000 A 
ATOM     18  N   UNL     1      46.071   3.931   7.837  0.00  0.00    +0.000 NA
ATOM     19  C   UNL     1      45.599   4.684   8.794  0.00  0.00    +0.000 A 
ATOM     20  C   UNL     1      44.713   4.168   9.803  0.00  0.00    +0.000 A 
ENDBRANCH   9  12
ENDBRANCH   7  10
ENDBRANCH   1   7
BRANCH   4  21
ATOM     21  C   UNL     1      50.780   7.953  15.243  0.00  0.00    +0.000 C 
BRANCH  21  22
ATOM     22  N   UNL     1      51.074   6.670  15.873  0.00  0.00    +0.000 NA
ATOM     23  H   UNL     1      52.056   6.675  16.148  0.00  0.00    +0.000 HD
BRANCH  22  24
ATOM     24  CA  UNL     1      50.274   6.426  17.100  0.00  0.00    +0.000 C 
BRANCH  24  25
ATOM     25  C   UNL     1      49.498   5.109  16.978  0.00  0.00    +0.000 A 
ATOM     26  C   UNL     1      48.145   5.101  16.629  0.00  0.00    +0.000 A 
ATOM     27  C   UNL     1      47.446   3.897  16.624  0.00  0.00    +0.000 A 
ATOM     28  C   UNL     1      48.109   2.727  16.965  0.00  0.00    +0.000 A 
ATOM     29  C   UNL     1      49.456   2.809  17.275  0.00  0.00    +0.000 A 
ATOM     30  N   UNL     1      50.164   3.963  17.281  0.00  0.00    +0.000 NA
ENDBRANCH  24  25
BRANCH  24  31
ATOM     31  C   UNL     1      51.107   6.460  18.408  0.00  0.00    +0.000 C 
BRANCH  31  32
ATOM     32  O   UNL     1      50.353   5.983  19.529  0.00  0.00    +0.000 OA
ATOM     33  H   UNL     1      49.837   6.737  19.864  0.00  0.00    +0.000 HD
ENDBRANCH  31  32
ENDBRANCH  24  31
ENDBRANCH  22  24
ENDBRANCH  21  22
ENDBRANCH   4  21
TORSDOF 9
ENDMDL
MODEL 8
REMARK VINA RESULT:    -7.085      2.668      8.073
REMARK INTER + INTRA:         -11.212
REMARK INTER:                  -9.773
REMARK INTRA:                  -1.438
REMARK UNBOUND:                -0.606
REMARK  Name = 
REMARK  9 active torsions:
REMARK  status: ('A' for Active; 'I' for Inactive)
REMARK    1  A    between atoms: C_2  and  C_22
REMARK    2  A    between atoms: N_3  and  C_4
REMARK    3  A    between atoms: C_4  and  C_5
REMARK    4  A    between atoms: C_8  and  C_9
REMARK    5  A    between atoms: C_9  and  N_10
REMARK    6  A    between atoms: N_10  and  CA_11
REMARK    7  A    between atoms: CA_11  and  C_12
REMARK    8  A    between atoms: CA_11  and  C_14
REMARK    9  A    between atoms: C_12  and  O_13
REMARK                            x       y       z     vdW  Elec       q    Type
REMARK                         _______ _______ _______ _____ _____    ______ ____
ROOT
ATOM      1  C   UNL     1      48.441   8.117  14.160  0.00  0.00    +0.000 A 
ATOM      2  C   UNL     1      48.111   9.075  15.128  0.00  0.00    +0.000 A 
ATOM      3  C   UNL     1      48.297   8.805  16.486  0.00  0.00    +0.000 A 
ATOM      4  C   UNL     1      48.826   7.577  16.902  0.00  0.00    +0.000 A 
ATOM      5  C   UNL     1      49.165   6.624  15.932  0.00  0.00    +0.000 A 
ATOM      6  C   UNL     1      48.982   6.894  14.574  0.00  0.00    +0.000 A 
ENDROOT
BRANCH   1   7
ATOM      7  C   UNL     1      48.272   8.420  12.695  0.00  0.00    +0.000 C 
BRANCH   7  10
ATOM      8  O   UNL     1      45.512   8.004  12.565  0.00  0.00    +0.000 OA
ATOM      9  C   UNL     1      46.252   7.210  11.997  0.00  0.00    +0.000 C 
ATOM     10  N   UNL     1      47.622   7.319  12.026  0.00  0.00    +0.000 N 
ATOM     11  H   UNL     1      48.197   6.728  11.445  0.00  0.00    +0.000 HD
BRANCH   9  12
ATOM     12  C   UNL     1      45.745   6.079  11.242  0.00  0.00    +0.000 A 
ATOM     13  C   UNL     1      45.892   5.748   9.876  0.00  0.00    +0.000 A 
ATOM     14  N   UNL     1      45.266   4.623   9.528  0.00  0.00    +0.000 NA
ATOM     15  N   UNL     1      44.700   4.190  10.676  0.00  0.00    +0.000 N 
ATOM     16  C   UNL     1      43.920   3.067  10.887  0.00  0.00    +0.000 A 
ATOM     17  C   UNL     1      43.455   2.823  12.121  0.00  0.00    +0.000 A 
ATOM     18  N   UNL     1      43.716   3.631  13.211  0.00  0.00    +0.000 NA
ATOM     19  C   UNL     1      44.451   4.694  13.021  0.00  0.00    +0.000 A 
ATOM     20  C   UNL     1      44.980   5.035  11.728  0.00  0.00    +0.000 A 
ENDBRANCH   9  12
ENDBRANCH   7  10
ENDBRANCH   1   7
BRANCH   4  21
ATOM     21  C   UNL     1      49.033   7.282  18.371  0.00  0.00    +0.000 C 
BRANCH  21  22
ATOM     22  N   UNL     1      47.758   7.056  19.043  0.00  0.00    +0.000 NA
ATOM     23  H   UNL     1      47.019   7.131  18.345  0.00  0.00    +0.000 HD
BRANCH  22  24
ATOM     24  CA  UNL     1      47.652   5.707  19.655  0.00  0.00    +0.000 C 
BRANCH  24  25
ATOM     25  C   UNL     1      47.892   4.622  18.598  0.00  0.00    +0.000 A 
ATOM     26  C   UNL     1      49.080   3.886  18.579  0.00  0.00    +0.000 A 
ATOM     27  C   UNL     1      49.307   2.979  17.548  0.00  0.00    +0.000 A 
ATOM     28  C   UNL     1      48.347   2.821  16.559  0.00  0.00    +0.000 A 
ATOM     29  C   UNL     1      47.184   3.567  16.658  0.00  0.00    +0.000 A 
ATOM     30  N   UNL     1      46.931   4.450  17.651  0.00  0.00    +0.000 NA
ENDBRANCH  24  25
BRANCH  24  31
ATOM     31  C   UNL     1      48.580   5.501  20.882  0.00  0.00    +0.000 C 
BRANCH  31  32
ATOM     32  O   UNL     1      47.958   4.690  21.885  0.00  0.00    +0.000 OA
ATOM     33  H   UNL     1      47.133   4.346  21.499  0.00  0.00    +0.000 HD
ENDBRANCH  31  32
ENDBRANCH  24  31
ENDBRANCH  22  24
ENDBRANCH  21  22
ENDBRANCH   4  21
TORSDOF 9
ENDMDL
MODEL 9
REMARK VINA RESULT:    -7.045      2.301      8.389
REMARK INTER + INTRA:         -11.152
REMARK INTER:                  -9.453
REMARK INTRA:                  -1.698
REMARK UNBOUND:                -0.606
REMARK  Name = 
REMARK  9 active torsions:
REMARK  status: ('A' for Active; 'I' for Inactive)
REMARK    1  A    between atoms: C_2  and  C_22
REMARK    2  A    between atoms: N_3  and  C_4
REMARK    3  A    between atoms: C_4  and  C_5
REMARK    4  A    between atoms: C_8  and  C_9
REMARK    5  A    between atoms: C_9  and  N_10
REMARK    6  A    between atoms: N_10  and  CA_11
REMARK    7  A    between atoms: CA_11  and  C_12
REMARK    8  A    between atoms: CA_11  and  C_14
REMARK    9  A    between atoms: C_12  and  O_13
REMARK                            x       y       z     vdW  Elec       q    Type
REMARK                         _______ _______ _______ _____ _____    ______ ____
ROOT
ATOM      1  C   UNL     1      48.558   8.014  14.077  0.00  0.00    +0.000 A 
ATOM      2  C   UNL     1      49.536   7.130  14.550  0.00  0.00    +0.000 A 
ATOM      3  C   UNL     1      49.945   7.171  15.886  0.00  0.00    +0.000 A 
ATOM      4  C   UNL     1      49.376   8.090  16.776  0.00  0.00    +0.000 A 
ATOM      5  C   UNL     1      48.390   8.967  16.305  0.00  0.00    +0.000 A 
ATOM      6  C   UNL     1      47.979   8.924  14.970  0.00  0.00    +0.000 A 
ENDROOT
BRANCH   1   7
ATOM      7  C   UNL     1      48.093   7.948  12.647  0.00  0.00    +0.000 C 
BRANCH   7  10
ATOM      8  O   UNL     1      45.329   7.587  12.833  0.00  0.00    +0.000 OA
ATOM      9  C   UNL     1      46.023   6.636  12.498  0.00  0.00    +0.000 C 
ATOM     10  N   UNL     1      47.393   6.711  12.402  0.00  0.00    +0.000 N 
ATOM     11  H   UNL     1      47.922   5.953  12.001  0.00  0.00    +0.000 HD
BRANCH   9  12
ATOM     12  C   UNL     1      45.458   5.339  12.171  0.00  0.00    +0.000 A 
ATOM     13  C   UNL     1      44.943   4.326  13.009  0.00  0.00    +0.000 A 
ATOM     14  N   UNL     1      44.516   3.249  12.347  0.00  0.00    +0.000 NA
ATOM     15  N   UNL     1      44.740   3.550  11.048  0.00  0.00    +0.000 N 
ATOM     16  C   UNL     1      44.492   2.779   9.926  0.00  0.00    +0.000 A 
ATOM     17  C   UNL     1      44.794   3.276   8.718  0.00  0.00    +0.000 A 
ATOM     18  N   UNL     1      45.338   4.531   8.521  0.00  0.00    +0.000 NA
ATOM     19  C   UNL     1      45.576   5.266   9.575  0.00  0.00    +0.000 A 
ATOM     20  C   UNL     1      45.292   4.804  10.907  0.00  0.00    +0.000 A 
ENDBRANCH   9  12
ENDBRANCH   7  10
ENDBRANCH   1   7
BRANCH   4  21
ATOM     21  C   UNL     1      49.812   8.135  18.224  0.00  0.00    +0.000 C 
BRANCH  21  22
ATOM     22  N   UNL     1      50.381   6.857  18.638  0.00  0.00    +0.000 NA
ATOM     23  H   UNL     1      51.132   7.049  19.300  0.00  0.00    +0.000 HD
BRANCH  22  24
ATOM     24  CA  UNL     1      49.401   5.978  19.325  0.00  0.00    +0.000 C 
BRANCH  24  25
ATOM     25  C   UNL     1      48.901   4.887  18.371  0.00  0.00    +0.000 A 
ATOM     26  C   UNL     1      47.604   4.925  17.852  0.00  0.00    +0.000 A 
ATOM     27  C   UNL     1      47.149   3.868  17.068  0.00  0.00    +0.000 A 
ATOM     28  C   UNL     1      47.994   2.798  16.816  0.00  0.00    +0.000 A 
ATOM     29  C   UNL     1      49.274   2.841  17.344  0.00  0.00    +0.000 A 
ATOM     30  N   UNL     1      49.748   3.857  18.102  0.00  0.00    +0.000 NA
ENDBRANCH  24  25
BRANCH  24  31
ATOM     31  C   UNL     1      49.934   5.359  20.645  0.00  0.00    +0.000 C 
BRANCH  31  32
ATOM     32  O   UNL     1      49.190   4.193  21.020  0.00  0.00    +0.000 OA
ATOM     33  H   UNL     1      49.075   3.660  20.214  0.00  0.00    +0.000 HD
ENDBRANCH  31  32
ENDBRANCH  24  31
ENDBRANCH  22  24
ENDBRANCH  21  22
ENDBRANCH   4  21
TORSDOF 9
ENDMDL
