MODEL 1
REMARK VINA RESULT:    -7.568      0.000      0.000
REMARK INTER + INTRA:         -11.433
REMARK INTER:                 -10.665
REMARK INTRA:                  -0.769
REMARK UNBOUND:                -0.769
REMARK  Name = 
REMARK  9 active torsions:
REMARK  status: ('A' for Active; 'I' for Inactive)
REMARK    1  A    between atoms: C_1  and  C_2
REMARK    2  A    between atoms: C_5  and  C_6
REMARK    3  A    between atoms: C_6  and  C_7
REMARK    4  A    between atoms: C_6  and  C_8
REMARK    5  A    between atoms: C_8  and  O_9
REMARK    6  A    between atoms: O_9  and  C_10
REMARK    7  A    between atoms: C_14  and  O_15
REMARK    8  A    between atoms: O_15  and  C_16
REMARK    9  A    between atoms: C_22  and  C_23
REMARK                            x       y       z     vdW  Elec       q    Type
REMARK                         _______ _______ _______ _____ _____    ______ ____
ROOT
ATOM      1  C   UNL     1      46.766   7.007  12.838  0.00  0.00    +0.000 C 
ATOM      2  C   UNL     1      47.731   7.238  11.665  0.00  0.00    +0.000 C 
ENDROOT
BRANCH   1   7
ATOM      3  C   UNL     1      49.681   5.236  17.518  0.00  0.00    +0.000 C 
ATOM      4  C   UNL     1      48.876   5.614  16.310  0.00  0.00    +0.000 A 
ATOM      5  C   UNL     1      49.105   6.841  15.701  0.00  0.00    +0.000 A 
ATOM      6  N   UNL     1      48.458   7.284  14.602  0.00  0.00    +0.000 NA
ATOM      7  C   UNL     1      47.499   6.495  14.067  0.00  0.00    +0.000 A 
ATOM      8  C   UNL     1      47.199   5.244  14.601  0.00  0.00    +0.000 A 
ATOM      9  C   UNL     1      47.897   4.791  15.731  0.00  0.00    +0.000 A 
BRANCH   9  10
ATOM     10  C   UNL     1      47.553   3.466  16.327  0.00  0.00    +0.000 C 
ATOM     11  N   UNL     1      48.321   2.389  15.976  0.00  0.00    +0.000 N 
ATOM     12  O   UNL     1      46.630   3.315  17.114  0.00  0.00    +0.000 OA
ATOM     13  H   UNL     1      49.205   2.470  15.484  0.00  0.00    +0.000 HD
ATOM     14  H   UNL     1      48.119   1.518  16.447  0.00  0.00    +0.000 HD
ENDBRANCH   9  10
ENDBRANCH   1   7
BRANCH   1  15
ATOM     15  C   UNL     1      45.682   6.010  12.398  0.00  0.00    +0.000 C 
BRANCH  15  16
ATOM     16  O   UNL     1      45.386   6.164  11.002  0.00  0.00    +0.000 OA
BRANCH  16  17
ATOM     17  C   UNL     1      45.171   4.996  10.316  0.00  0.00    +0.000 A 
ATOM     18  C   UNL     1      44.423   3.913  10.779  0.00  0.00    +0.000 A 
ATOM     19  C   UNL     1      44.248   2.782   9.971  0.00  0.00    +0.000 A 
ATOM     20  C   UNL     1      44.820   2.725   8.701  0.00  0.00    +0.000 A 
ATOM     21  C   UNL     1      45.576   3.799   8.238  0.00  0.00    +0.000 A 
ATOM     22  C   UNL     1      45.733   4.935   9.039  0.00  0.00    +0.000 A 
BRANCH  21  23
ATOM     23  O   UNL     1      46.177   3.863   7.005  0.00  0.00    +0.000 OA
BRANCH  23  24
ATOM     24  C   UNL     1      46.599   2.637   6.362  0.00  0.00    +0.000 C 
ATOM     25  C   UNL     1      47.764   1.849   6.995  0.00  0.00    +0.000 C 
ATOM     26  N   UNL     1      48.478   1.836   5.710  0.00  0.00    +0.000 NA
ATOM     27  C   UNL     1      47.545   2.828   5.158  0.00  0.00    +0.000 C 
ATOM     28  H   UNL     1      48.462   0.938   5.230  0.00  0.00    +0.000 HD
ENDBRANCH  23  24
ENDBRANCH  21  23
ENDBRANCH  16  17
ENDBRANCH  15  16
ENDBRANCH   1  15
TORSDOF 7
ENDMDL
MODEL 2
REMARK VINA RESULT:    -7.515      1.812      8.311
REMARK INTER + INTRA:         -11.359
REMARK INTER:                 -10.555
REMARK INTRA:                  -0.804
REMARK UNBOUND:                -0.769
REMARK  Name = 
REMARK  9 active torsions:
REMARK  status: ('A' for Active; 'I' for Inactive)
REMARK    1  A    between atoms: C_1  and  C_2
REMARK    2  A    between atoms: C_5  and  C_6
REMARK    3  A    between atoms: C_6  and  C_7
REMARK    4  A    between atoms: C_6  and  C_8
REMARK    5  A    between atoms: C_8  and  O_9
REMARK    6  A    between atoms: O_9  and  C_10
REMARK    7  A    between atoms: C_14  and  O_15
REMARK    8  A    between atoms: O_15  and  C_16
REMARK    9  A    between atoms: C_22  and  C_23
REMARK                            x       y       z     vdW  Elec       q    Type
REMARK                         _______ _______ _______ _____ _____    ______ ____
ROOT
ATOM      1  C   UNL     1      44.665   5.127   9.719  0.00  0.00    +0.000 C 
ATOM      2  C   UNL     1      43.554   4.822  10.736  0.00  0.00    +0.000 C 
ENDROOT
BRANCH   1   7
ATOM      3  C   UNL     1      46.615   0.162   7.466  0.00  0.00    +0.000 C 
ATOM      4  C   UNL     1      46.156   1.494   7.980  0.00  0.00    +0.000 A 
ATOM      5  C   UNL     1      45.315   1.540   9.084  0.00  0.00    +0.000 A 
ATOM      6  N   UNL     1      44.851   2.675   9.648  0.00  0.00    +0.000 NA
ATOM      7  C   UNL     1      45.203   3.854   9.087  0.00  0.00    +0.000 A 
ATOM      8  C   UNL     1      46.048   3.914   7.981  0.00  0.00    +0.000 A 
ATOM      9  C   UNL     1      46.538   2.724   7.422  0.00  0.00    +0.000 A 
BRANCH   9  10
ATOM     10  C   UNL     1      47.415   2.783   6.215  0.00  0.00    +0.000 C 
ATOM     11  N   UNL     1      48.768   2.714   6.405  0.00  0.00    +0.000 N 
ATOM     12  O   UNL     1      46.971   2.880   5.080  0.00  0.00    +0.000 OA
ATOM     13  H   UNL     1      49.196   2.449   7.285  0.00  0.00    +0.000 HD
ATOM     14  H   UNL     1      49.340   2.680   5.571  0.00  0.00    +0.000 HD
ENDBRANCH   9  10
ENDBRANCH   1   7
BRANCH   1  15
ATOM     15  C   UNL     1      45.789   5.896  10.432  0.00  0.00    +0.000 C 
BRANCH  15  16
ATOM     16  O   UNL     1      45.604   5.865  11.854  0.00  0.00    +0.000 OA
BRANCH  16  17
ATOM     17  C   UNL     1      46.629   6.400  12.591  0.00  0.00    +0.000 A 
ATOM     18  C   UNL     1      47.236   7.634  12.355  0.00  0.00    +0.000 A 
ATOM     19  C   UNL     1      48.257   8.089  13.198  0.00  0.00    +0.000 A 
ATOM     20  C   UNL     1      48.680   7.315  14.278  0.00  0.00    +0.000 A 
ATOM     21  C   UNL     1      48.085   6.078  14.512  0.00  0.00    +0.000 A 
ATOM     22  C   UNL     1      47.052   5.634  13.681  0.00  0.00    +0.000 A 
BRANCH  21  23
ATOM     23  O   UNL     1      48.408   5.235  15.547  0.00  0.00    +0.000 OA
BRANCH  23  24
ATOM     24  C   UNL     1      47.388   4.364  16.091  0.00  0.00    +0.000 C 
ATOM     25  C   UNL     1      47.002   4.536  17.574  0.00  0.00    +0.000 C 
ATOM     26  N   UNL     1      47.234   3.105  17.820  0.00  0.00    +0.000 NA
ATOM     27  C   UNL     1      47.887   2.964  16.511  0.00  0.00    +0.000 C 
ATOM     28  H   UNL     1      46.384   2.553  17.922  0.00  0.00    +0.000 HD
ENDBRANCH  23  24
ENDBRANCH  21  23
ENDBRANCH  16  17
ENDBRANCH  15  16
ENDBRANCH   1  15
TORSDOF 7
ENDMDL
MODEL 3
REMARK VINA RESULT:    -7.318      2.010      3.384
REMARK INTER + INTRA:         -11.082
REMARK INTER:                 -10.191
REMARK INTRA:                  -0.891
REMARK UNBOUND:                -0.769
REMARK  Name = 
REMARK  9 active torsions:
REMARK  status: ('A' for Active; 'I' for Inactive)
REMARK    1  A    between atoms: C_1  and  C_2
REMARK    2  A    between atoms: C_5  and  C_6
REMARK    3  A    between atoms: C_6  and  C_7
REMARK    4  A    between atoms: C_6  and  C_8
REMARK    5  A    between atoms: C_8  and  O_9
REMARK    6  A    between atoms: O_9  and  C_10
REMARK    7  A    between atoms: C_14  and  O_15
REMARK    8  A    between atoms: O_15  and  C_16
REMARK    9  A    between atoms: C_22  and  C_23
REMARK                            x       y       z     vdW  Elec       q    Type
REMARK                         _______ _______ _______ _____ _____    ______ ____
ROOT
ATOM      1  C   UNL     1      46.610   5.303  12.840  0.00  0.00    +0.000 C 
ATOM      2  C   UNL     1      46.274   4.272  13.929  0.00  0.00    +0.000 C 
ENDROOT
BRANCH   1   7
ATOM      3  C   UNL     1      51.165   8.460  14.520  0.00  0.00    +0.000 C 
ATOM      4  C   UNL     1      50.007   7.664  13.995  0.00  0.00    +0.000 A 
ATOM      5  C   UNL     1      49.200   6.972  14.889  0.00  0.00    +0.000 A 
ATOM      6  N   UNL     1      48.123   6.238  14.540  0.00  0.00    +0.000 NA
ATOM      7  C   UNL     1      47.817   6.143  13.226  0.00  0.00    +0.000 A 
ATOM      8  C   UNL     1      48.561   6.804  12.252  0.00  0.00    +0.000 A 
ATOM      9  C   UNL     1      49.665   7.580  12.636  0.00  0.00    +0.000 A 
BRANCH   9  10
ATOM     10  C   UNL     1      50.485   8.262  11.592  0.00  0.00    +0.000 C 
ATOM     11  N   UNL     1      51.498   7.550  11.009  0.00  0.00    +0.000 N 
ATOM     12  O   UNL     1      50.279   9.414  11.238  0.00  0.00    +0.000 OA
ATOM     13  H   UNL     1      51.608   6.547  11.114  0.00  0.00    +0.000 HD
ATOM     14  H   UNL     1      51.992   8.005  10.253  0.00  0.00    +0.000 HD
ENDBRANCH   9  10
ENDBRANCH   1   7
BRANCH   1  15
ATOM     15  C   UNL     1      45.380   6.195  12.609  0.00  0.00    +0.000 C 
BRANCH  15  16
ATOM     16  O   UNL     1      45.104   6.327  11.207  0.00  0.00    +0.000 OA
BRANCH  16  17
ATOM     17  C   UNL     1      44.969   5.147  10.522  0.00  0.00    +0.000 A 
ATOM     18  C   UNL     1      44.185   4.064  10.925  0.00  0.00    +0.000 A 
ATOM     19  C   UNL     1      44.102   2.920  10.122  0.00  0.00    +0.000 A 
ATOM     20  C   UNL     1      44.801   2.848   8.918  0.00  0.00    +0.000 A 
ATOM     21  C   UNL     1      45.592   3.921   8.517  0.00  0.00    +0.000 A 
ATOM     22  C   UNL     1      45.659   5.071   9.310  0.00  0.00    +0.000 A 
BRANCH  21  23
ATOM     23  O   UNL     1      46.315   3.971   7.350  0.00  0.00    +0.000 OA
BRANCH  23  24
ATOM     24  C   UNL     1      46.590   2.741   6.637  0.00  0.00    +0.000 C 
ATOM     25  C   UNL     1      47.846   1.939   7.032  0.00  0.00    +0.000 C 
ATOM     26  N   UNL     1      48.296   1.921   5.632  0.00  0.00    +0.000 NA
ATOM     27  C   UNL     1      47.285   2.924   5.271  0.00  0.00    +0.000 C 
ATOM     28  H   UNL     1      48.176   1.023   5.164  0.00  0.00    +0.000 HD
ENDBRANCH  23  24
ENDBRANCH  21  23
ENDBRANCH  16  17
ENDBRANCH  15  16
ENDBRANCH   1  15
TORSDOF 7
ENDMDL
MODEL 4
REMARK VINA RESULT:    -6.859      2.317      3.150
REMARK INTER + INTRA:         -10.434
REMARK INTER:                  -9.628
REMARK INTRA:                  -0.807
REMARK UNBOUND:                -0.769
REMARK  Name = 
REMARK  9 active torsions:
REMARK  status: ('A' for Active; 'I' for Inactive)
REMARK    1  A    between atoms: C_1  and  C_2
REMARK    2  A    between atoms: C_5  and  C_6
REMARK    3  A    between atoms: C_6  and  C_7
REMARK    4  A    between atoms: C_6  and  C_8
REMARK    5  A    between atoms: C_8  and  O_9
REMARK    6  A    between atoms: O_9  and  C_10
REMARK    7  A    between atoms: C_14  and  O_15
REMARK    8  A    between atoms: O_15  and  C_16
REMARK    9  A    between atoms: C_22  and  C_23
REMARK                            x       y       z     vdW  Elec       q    Type
REMARK                         _______ _______ _______ _____ _____    ______ ____
ROOT
ATOM      1  C   UNL     1      46.853   5.711  12.479  0.00  0.00    +0.000 C 
ATOM      2  C   UNL     1      46.563   5.017  13.819  0.00  0.00    +0.000 C 
ENDROOT
BRANCH   1   7
ATOM      3  C   UNL     1      51.257   9.464  12.723  0.00  0.00    +0.000 C 
ATOM      4  C   UNL     1      50.131   8.473  12.752  0.00  0.00    +0.000 A 
ATOM      5  C   UNL     1      49.380   8.268  11.601  0.00  0.00    +0.000 A 
ATOM      6  N   UNL     1      48.356   7.394  11.499  0.00  0.00    +0.000 NA
ATOM      7  C   UNL     1      48.015   6.683  12.598  0.00  0.00    +0.000 A 
ATOM      8  C   UNL     1      48.711   6.813  13.799  0.00  0.00    +0.000 A 
ATOM      9  C   UNL     1      49.785   7.711  13.879  0.00  0.00    +0.000 A 
BRANCH   9  10
ATOM     10  C   UNL     1      50.510   7.878  15.173  0.00  0.00    +0.000 C 
ATOM     11  N   UNL     1      51.611   7.096  15.395  0.00  0.00    +0.000 N 
ATOM     12  O   UNL     1      50.165   8.685  16.025  0.00  0.00    +0.000 OA
ATOM     13  H   UNL     1      52.061   6.547  14.670  0.00  0.00    +0.000 HD
ATOM     14  H   UNL     1      52.130   7.277  16.243  0.00  0.00    +0.000 HD
ENDBRANCH   9  10
ENDBRANCH   1   7
BRANCH   1  15
ATOM     15  C   UNL     1      45.582   6.440  12.015  0.00  0.00    +0.000 C 
BRANCH  15  16
ATOM     16  O   UNL     1      45.378   6.260  10.606  0.00  0.00    +0.000 OA
BRANCH  16  17
ATOM     17  C   UNL     1      45.060   4.983  10.218  0.00  0.00    +0.000 A 
ATOM     18  C   UNL     1      44.351   4.058  10.985  0.00  0.00    +0.000 A 
ATOM     19  C   UNL     1      44.059   2.791  10.466  0.00  0.00    +0.000 A 
ATOM     20  C   UNL     1      44.475   2.439   9.183  0.00  0.00    +0.000 A 
ATOM     21  C   UNL     1      45.192   3.355   8.417  0.00  0.00    +0.000 A 
ATOM     22  C   UNL     1      45.465   4.627   8.929  0.00  0.00    +0.000 A 
BRANCH  21  23
ATOM     23  O   UNL     1      45.642   3.128   7.140  0.00  0.00    +0.000 OA
BRANCH  23  24
ATOM     24  C   UNL     1      47.067   3.029   6.901  0.00  0.00    +0.000 C 
ATOM     25  C   UNL     1      47.551   2.883   5.445  0.00  0.00    +0.000 C 
ATOM     26  N   UNL     1      48.331   1.690   5.805  0.00  0.00    +0.000 NA
ATOM     27  C   UNL     1      47.664   1.621   7.112  0.00  0.00    +0.000 C 
ATOM     28  H   UNL     1      49.337   1.846   5.859  0.00  0.00    +0.000 HD
ENDBRANCH  23  24
ENDBRANCH  21  23
ENDBRANCH  16  17
ENDBRANCH  15  16
ENDBRANCH   1  15
TORSDOF 7
ENDMDL
MODEL 5
REMARK VINA RESULT:    -6.783      2.643      4.437
REMARK INTER + INTRA:         -10.327
REMARK INTER:                  -9.400
REMARK INTRA:                  -0.927
REMARK UNBOUND:                -0.769
REMARK  Name = 
REMARK  9 active torsions:
REMARK  status: ('A' for Active; 'I' for Inactive)
REMARK    1  A    between atoms: C_1  and  C_2
REMARK    2  A    between atoms: C_5  and  C_6
REMARK    3  A    between atoms: C_6  and  C_7
REMARK    4  A    between atoms: C_6  and  C_8
REMARK    5  A    between atoms: C_8  and  O_9
REMARK    6  A    between atoms: O_9  and  C_10
REMARK    7  A    between atoms: C_14  and  O_15
REMARK    8  A    between atoms: O_15  and  C_16
REMARK    9  A    between atoms: C_22  and  C_23
REMARK                            x       y       z     vdW  Elec       q    Type
REMARK                         _______ _______ _______ _____ _____    ______ ____
ROOT
ATOM      1  C   UNL     1      47.450   6.344  12.402  0.00  0.00    +0.000 C 
ATOM      2  C   UNL     1      47.524   6.024  13.903  0.00  0.00    +0.000 C 
ENDROOT
BRANCH   1   7
ATOM      3  C   UNL     1      50.340  11.198  11.126  0.00  0.00    +0.000 C 
ATOM      4  C   UNL     1      49.673   9.892  11.443  0.00  0.00    +0.000 A 
ATOM      5  C   UNL     1      48.334   9.889  11.814  0.00  0.00    +0.000 A 
ATOM      6  N   UNL     1      47.622   8.780  12.105  0.00  0.00    +0.000 NA
ATOM      7  C   UNL     1      48.256   7.587  12.060  0.00  0.00    +0.000 A 
ATOM      8  C   UNL     1      49.596   7.484  11.692  0.00  0.00    +0.000 A 
ATOM      9  C   UNL     1      50.315   8.646  11.373  0.00  0.00    +0.000 A 
BRANCH   9  10
ATOM     10  C   UNL     1      51.760   8.543  11.013  0.00  0.00    +0.000 C 
ATOM     11  N   UNL     1      52.674   8.548  12.031  0.00  0.00    +0.000 N 
ATOM     12  O   UNL     1      52.148   8.446   9.857  0.00  0.00    +0.000 OA
ATOM     13  H   UNL     1      52.423   8.437  13.008  0.00  0.00    +0.000 HD
ATOM     14  H   UNL     1      53.640   8.402  11.771  0.00  0.00    +0.000 HD
ENDBRANCH   9  10
ENDBRANCH   1   7
BRANCH   1  15
ATOM     15  C   UNL     1      45.977   6.528  12.007  0.00  0.00    +0.000 C 
BRANCH  15  16
ATOM     16  O   UNL     1      45.798   6.326  10.598  0.00  0.00    +0.000 OA
BRANCH  16  17
ATOM     17  C   UNL     1      45.358   5.079  10.235  0.00  0.00    +0.000 A 
ATOM     18  C   UNL     1      44.637   4.207  11.052  0.00  0.00    +0.000 A 
ATOM     19  C   UNL     1      44.214   2.967  10.557  0.00  0.00    +0.000 A 
ATOM     20  C   UNL     1      44.510   2.590   9.248  0.00  0.00    +0.000 A 
ATOM     21  C   UNL     1      45.239   3.452   8.432  0.00  0.00    +0.000 A 
ATOM     22  C   UNL     1      45.643   4.698   8.922  0.00  0.00    +0.000 A 
BRANCH  21  23
ATOM     23  O   UNL     1      45.580   3.196   7.126  0.00  0.00    +0.000 OA
BRANCH  23  24
ATOM     24  C   UNL     1      46.975   3.226   6.743  0.00  0.00    +0.000 C 
ATOM     25  C   UNL     1      47.332   2.912   5.276  0.00  0.00    +0.000 C 
ATOM     26  N   UNL     1      48.292   1.887   5.710  0.00  0.00    +0.000 NA
ATOM     27  C   UNL     1      47.768   1.945   7.081  0.00  0.00    +0.000 C 
ATOM     28  H   UNL     1      49.269   2.164   5.626  0.00  0.00    +0.000 HD
ENDBRANCH  23  24
ENDBRANCH  21  23
ENDBRANCH  16  17
ENDBRANCH  15  16
ENDBRANCH   1  15
TORSDOF 7
ENDMDL
MODEL 6
REMARK VINA RESULT:    -6.680      2.783      4.794
REMARK INTER + INTRA:         -10.183
REMARK INTER:                  -9.929
REMARK INTRA:                  -0.254
REMARK UNBOUND:                -0.769
REMARK  Name = 
REMARK  9 active torsions:
REMARK  status: ('A' for Active; 'I' for Inactive)
REMARK    1  A    between atoms: C_1  and  C_2
REMARK    2  A    between atoms: C_5  and  C_6
REMARK    3  A    between atoms: C_6  and  C_7
REMARK    4  A    between atoms: C_6  and  C_8
REMARK    5  A    between atoms: C_8  and  O_9
REMARK    6  A    between atoms: O_9  and  C_10
REMARK    7  A    between atoms: C_14  and  O_15
REMARK    8  A    between atoms: O_15  and  C_16
REMARK    9  A    between atoms: C_22  and  C_23
REMARK                            x       y       z     vdW  Elec       q    Type
REMARK                         _______ _______ _______ _____ _____    ______ ____
ROOT
ATOM      1  C   UNL     1      46.126   6.381  12.177  0.00  0.00    +0.000 C 
ATOM      2  C   UNL     1      46.740   5.799  13.460  0.00  0.00    +0.000 C 
ENDROOT
BRANCH   1   7
ATOM      3  C   UNL     1      47.244  12.053  11.833  0.00  0.00    +0.000 C 
ATOM      4  C   UNL     1      46.862  10.604  11.910  0.00  0.00    +0.000 A 
ATOM      5  C   UNL     1      47.859   9.649  12.059  0.00  0.00    +0.000 A 
ATOM      6  N   UNL     1      47.639   8.320  12.157  0.00  0.00    +0.000 NA
ATOM      7  C   UNL     1      46.363   7.879  12.079  0.00  0.00    +0.000 A 
ATOM      8  C   UNL     1      45.293   8.759  11.937  0.00  0.00    +0.000 A 
ATOM      9  C   UNL     1      45.539  10.138  11.858  0.00  0.00    +0.000 A 
BRANCH   9  10
ATOM     10  C   UNL     1      44.397  11.081  11.670  0.00  0.00    +0.000 C 
ATOM     11  N   UNL     1      43.172  10.705  12.151  0.00  0.00    +0.000 N 
ATOM     12  O   UNL     1      44.519  12.165  11.118  0.00  0.00    +0.000 OA
ATOM     13  H   UNL     1      43.035   9.917  12.775  0.00  0.00    +0.000 HD
ATOM     14  H   UNL     1      42.430  11.388  12.080  0.00  0.00    +0.000 HD
ENDBRANCH   9  10
ENDBRANCH   1   7
BRANCH   1  15
ATOM     15  C   UNL     1      44.621   6.068  12.165  0.00  0.00    +0.000 C 
BRANCH  15  16
ATOM     16  O   UNL     1      44.146   5.907  10.820  0.00  0.00    +0.000 OA
BRANCH  16  17
ATOM     17  C   UNL     1      44.400   4.686  10.251  0.00  0.00    +0.000 A 
ATOM     18  C   UNL     1      43.977   3.455  10.756  0.00  0.00    +0.000 A 
ATOM     19  C   UNL     1      44.273   2.273  10.067  0.00  0.00    +0.000 A 
ATOM     20  C   UNL     1      44.993   2.311   8.874  0.00  0.00    +0.000 A 
ATOM     21  C   UNL     1      45.426   3.535   8.370  0.00  0.00    +0.000 A 
ATOM     22  C   UNL     1      45.113   4.717   9.050  0.00  0.00    +0.000 A 
BRANCH  21  23
ATOM     23  O   UNL     1      46.130   3.699   7.203  0.00  0.00    +0.000 OA
BRANCH  23  24
ATOM     24  C   UNL     1      46.631   2.531   6.511  0.00  0.00    +0.000 C 
ATOM     25  C   UNL     1      48.042   2.023   6.872  0.00  0.00    +0.000 C 
ATOM     26  N   UNL     1      48.434   2.051   5.456  0.00  0.00    +0.000 NA
ATOM     27  C   UNL     1      47.223   2.808   5.113  0.00  0.00    +0.000 C 
ATOM     28  H   UNL     1      48.489   1.133   5.017  0.00  0.00    +0.000 HD
ENDBRANCH  23  24
ENDBRANCH  21  23
ENDBRANCH  16  17
ENDBRANCH  15  16
ENDBRANCH   1  15
TORSDOF 7
ENDMDL
MODEL 7
REMARK VINA RESULT:    -6.662      2.533      7.852
REMARK INTER + INTRA:         -10.157
REMARK INTER:                  -9.555
REMARK INTRA:                  -0.601
REMARK UNBOUND:                -0.769
REMARK  Name = 
REMARK  9 active torsions:
REMARK  status: ('A' for Active; 'I' for Inactive)
REMARK    1  A    between atoms: C_1  and  C_2
REMARK    2  A    between atoms: C_5  and  C_6
REMARK    3  A    between atoms: C_6  and  C_7
REMARK    4  A    between atoms: C_6  and  C_8
REMARK    5  A    between atoms: C_8  and  O_9
REMARK    6  A    between atoms: O_9  and  C_10
REMARK    7  A    between atoms: C_14  and  O_15
REMARK    8  A    between atoms: O_15  and  C_16
REMARK    9  A    between atoms: C_22  and  C_23
REMARK                            x       y       z     vdW  Elec       q    Type
REMARK                         _______ _______ _______ _____ _____    ______ ____
ROOT
ATOM      1  C   UNL     1      46.892   7.269  12.327  0.00  0.00    +0.000 C 
ATOM      2  C   UNL     1      46.210   8.405  13.105  0.00  0.00    +0.000 C 
ENDROOT
BRANCH   1   7
ATOM      3  C   UNL     1      43.343   2.706  11.977  0.00  0.00    +0.000 C 
ATOM      4  C   UNL     1      44.277   3.879  11.973  0.00  0.00    +0.000 A 
ATOM      5  C   UNL     1      44.496   4.573  13.157  0.00  0.00    +0.000 A 
ATOM      6  N   UNL     1      45.325   5.631  13.283  0.00  0.00    +0.000 NA
ATOM      7  C   UNL     1      45.971   6.069  12.179  0.00  0.00    +0.000 A 
ATOM      8  C   UNL     1      45.823   5.436  10.946  0.00  0.00    +0.000 A 
ATOM      9  C   UNL     1      44.974   4.325  10.839  0.00  0.00    +0.000 A 
BRANCH   9  10
ATOM     10  C   UNL     1      44.786   3.666   9.512  0.00  0.00    +0.000 C 
ATOM     11  N   UNL     1      44.008   4.306   8.586  0.00  0.00    +0.000 N 
ATOM     12  O   UNL     1      45.304   2.596   9.227  0.00  0.00    +0.000 OA
ATOM     13  H   UNL     1      43.705   5.269   8.681  0.00  0.00    +0.000 HD
ATOM     14  H   UNL     1      43.955   3.880   7.670  0.00  0.00    +0.000 HD
ENDBRANCH   9  10
ENDBRANCH   1   7
BRANCH   1  15
ATOM     15  C   UNL     1      48.184   6.874  13.059  0.00  0.00    +0.000 C 
BRANCH  15  16
ATOM     16  O   UNL     1      48.279   7.548  14.322  0.00  0.00    +0.000 OA
BRANCH  16  17
ATOM     17  C   UNL     1      49.126   6.970  15.233  0.00  0.00    +0.000 A 
ATOM     18  C   UNL     1      50.496   7.218  15.333  0.00  0.00    +0.000 A 
ATOM     19  C   UNL     1      51.254   6.588  16.328  0.00  0.00    +0.000 A 
ATOM     20  C   UNL     1      50.651   5.706  17.224  0.00  0.00    +0.000 A 
ATOM     21  C   UNL     1      49.287   5.446  17.121  0.00  0.00    +0.000 A 
ATOM     22  C   UNL     1      48.528   6.091  16.139  0.00  0.00    +0.000 A 
BRANCH  21  23
ATOM     23  O   UNL     1      48.583   4.608  17.950  0.00  0.00    +0.000 OA
BRANCH  23  24
ATOM     24  C   UNL     1      48.604   3.183  17.696  0.00  0.00    +0.000 C 
ATOM     25  C   UNL     1      49.943   2.539  17.284  0.00  0.00    +0.000 C 
ATOM     26  N   UNL     1      49.310   1.938  16.101  0.00  0.00    +0.000 NA
ATOM     27  C   UNL     1      48.112   2.766  16.294  0.00  0.00    +0.000 C 
ATOM     28  H   UNL     1      49.140   0.936  16.179  0.00  0.00    +0.000 HD
ENDBRANCH  23  24
ENDBRANCH  21  23
ENDBRANCH  16  17
ENDBRANCH  15  16
ENDBRANCH   1  15
TORSDOF 7
ENDMDL
MODEL 8
REMARK VINA RESULT:    -6.659      2.568      7.901
REMARK INTER + INTRA:         -10.153
REMARK INTER:                  -9.124
REMARK INTRA:                  -1.029
REMARK UNBOUND:                -0.769
REMARK  Name = 
REMARK  9 active torsions:
REMARK  status: ('A' for Active; 'I' for Inactive)
REMARK    1  A    between atoms: C_1  and  C_2
REMARK    2  A    between atoms: C_5  and  C_6
REMARK    3  A    between atoms: C_6  and  C_7
REMARK    4  A    between atoms: C_6  and  C_8
REMARK    5  A    between atoms: C_8  and  O_9
REMARK    6  A    between atoms: O_9  and  C_10
REMARK    7  A    between atoms: C_14  and  O_15
REMARK    8  A    between atoms: O_15  and  C_16
REMARK    9  A    between atoms: C_22  and  C_23
REMARK                            x       y       z     vdW  Elec       q    Type
REMARK                         _______ _______ _______ _____ _____    ______ ____
ROOT
ATOM      1  C   UNL     1      46.697   7.656  12.021  0.00  0.00    +0.000 C 
ATOM      2  C   UNL     1      45.925   8.833  12.636  0.00  0.00    +0.000 C 
ENDROOT
BRANCH   1   7
ATOM      3  C   UNL     1      43.326   2.950  11.843  0.00  0.00    +0.000 C 
ATOM      4  C   UNL     1      44.221   4.153  11.797  0.00  0.00    +0.000 A 
ATOM      5  C   UNL     1      44.339   4.952  12.928  0.00  0.00    +0.000 A 
ATOM      6  N   UNL     1      45.124   6.047  13.015  0.00  0.00    +0.000 NA
ATOM      7  C   UNL     1      45.827   6.414  11.919  0.00  0.00    +0.000 A 
ATOM      8  C   UNL     1      45.781   5.675  10.739  0.00  0.00    +0.000 A 
ATOM      9  C   UNL     1      44.976   4.528  10.675  0.00  0.00    +0.000 A 
BRANCH   9  10
ATOM     10  C   UNL     1      44.897   3.753   9.401  0.00  0.00    +0.000 C 
ATOM     11  N   UNL     1      44.049   4.209   8.428  0.00  0.00    +0.000 N 
ATOM     12  O   UNL     1      45.561   2.747   9.197  0.00  0.00    +0.000 OA
ATOM     13  H   UNL     1      43.614   5.125   8.450  0.00  0.00    +0.000 HD
ATOM     14  H   UNL     1      44.067   3.713   7.546  0.00  0.00    +0.000 HD
ENDBRANCH   9  10
ENDBRANCH   1   7
BRANCH   1  15
ATOM     15  C   UNL     1      47.941   7.378  12.881  0.00  0.00    +0.000 C 
BRANCH  15  16
ATOM     16  O   UNL     1      48.214   8.484  13.752  0.00  0.00    +0.000 OA
BRANCH  16  17
ATOM     17  C   UNL     1      48.526   8.149  15.045  0.00  0.00    +0.000 A 
ATOM     18  C   UNL     1      48.612   9.043  16.113  0.00  0.00    +0.000 A 
ATOM     19  C   UNL     1      48.910   8.576  17.399  0.00  0.00    +0.000 A 
ATOM     20  C   UNL     1      49.126   7.217  17.625  0.00  0.00    +0.000 A 
ATOM     21  C   UNL     1      49.053   6.322  16.561  0.00  0.00    +0.000 A 
ATOM     22  C   UNL     1      48.735   6.788  15.281  0.00  0.00    +0.000 A 
BRANCH  21  23
ATOM     23  O   UNL     1      49.234   4.965  16.663  0.00  0.00    +0.000 OA
BRANCH  23  24
ATOM     24  C   UNL     1      48.106   4.084  16.446  0.00  0.00    +0.000 C 
ATOM     25  C   UNL     1      46.876   4.240  17.362  0.00  0.00    +0.000 C 
ATOM     26  N   UNL     1      46.917   2.809  17.692  0.00  0.00    +0.000 NA
ATOM     27  C   UNL     1      48.246   2.683  17.078  0.00  0.00    +0.000 C 
ATOM     28  H   UNL     1      46.195   2.252  17.237  0.00  0.00    +0.000 HD
ENDBRANCH  23  24
ENDBRANCH  21  23
ENDBRANCH  16  17
ENDBRANCH  15  16
ENDBRANCH   1  15
TORSDOF 7
ENDMDL
MODEL 9
REMARK VINA RESULT:    -6.549      2.401      3.913
REMARK INTER + INTRA:          -9.998
REMARK INTER:                  -9.295
REMARK INTRA:                  -0.703
REMARK UNBOUND:                -0.769
REMARK  Name = 
REMARK  9 active torsions:
REMARK  status: ('A' for Active; 'I' for Inactive)
REMARK    1  A    between atoms: C_1  and  C_2
REMARK    2  A    between atoms: C_5  and  C_6
REMARK    3  A    between atoms: C_6  and  C_7
REMARK    4  A    between atoms: C_6  and  C_8
REMARK    5  A    between atoms: C_8  and  O_9
REMARK    6  A    between atoms: O_9  and  C_10
REMARK    7  A    between atoms: C_14  and  O_15
REMARK    8  A    between atoms: O_15  and  C_16
REMARK    9  A    between atoms: C_22  and  C_23
REMARK                            x       y       z     vdW  Elec       q    Type
REMARK                         _______ _______ _______ _____ _____    ______ ____
ROOT
ATOM      1  C   UNL     1      46.557   4.739  13.493  0.00  0.00    +0.000 C 
ATOM      2  C   UNL     1      47.070   4.430  14.908  0.00  0.00    +0.000 C 
ENDROOT
BRANCH   1   7
ATOM      3  C   UNL     1      48.162   9.997  11.671  0.00  0.00    +0.000 C 
ATOM      4  C   UNL     1      47.839   8.610  12.144  0.00  0.00    +0.000 A 
ATOM      5  C   UNL     1      46.515   8.273  12.395  0.00  0.00    +0.000 A 
ATOM      6  N   UNL     1      46.098   7.057  12.807  0.00  0.00    +0.000 NA
ATOM      7  C   UNL     1      47.033   6.102  13.016  0.00  0.00    +0.000 A 
ATOM      8  C   UNL     1      48.386   6.340  12.787  0.00  0.00    +0.000 A 
ATOM      9  C   UNL     1      48.798   7.604  12.339  0.00  0.00    +0.000 A 
BRANCH   9  10
ATOM     10  C   UNL     1      50.250   7.873  12.125  0.00  0.00    +0.000 C 
ATOM     11  N   UNL     1      51.037   8.048  13.231  0.00  0.00    +0.000 N 
ATOM     12  O   UNL     1      50.755   7.931  11.013  0.00  0.00    +0.000 OA
ATOM     13  H   UNL     1      50.732   7.831  14.174  0.00  0.00    +0.000 HD
ATOM     14  H   UNL     1      52.029   8.155  13.067  0.00  0.00    +0.000 HD
ENDBRANCH   9  10
ENDBRANCH   1   7
BRANCH   1  15
ATOM     15  C   UNL     1      45.021   4.672  13.498  0.00  0.00    +0.000 C 
BRANCH  15  16
ATOM     16  O   UNL     1      44.560   3.528  12.766  0.00  0.00    +0.000 OA
BRANCH  16  17
ATOM     17  C   UNL     1      44.485   3.693  11.406  0.00  0.00    +0.000 A 
ATOM     18  C   UNL     1      43.819   4.731  10.753  0.00  0.00    +0.000 A 
ATOM     19  C   UNL     1      43.839   4.810   9.355  0.00  0.00    +0.000 A 
ATOM     20  C   UNL     1      44.519   3.854   8.603  0.00  0.00    +0.000 A 
ATOM     21  C   UNL     1      45.176   2.810   9.248  0.00  0.00    +0.000 A 
ATOM     22  C   UNL     1      45.172   2.744  10.646  0.00  0.00    +0.000 A 
BRANCH  21  23
ATOM     23  O   UNL     1      45.887   1.820   8.617  0.00  0.00    +0.000 OA
BRANCH  23  24
ATOM     24  C   UNL     1      46.441   2.076   7.304  0.00  0.00    +0.000 C 
ATOM     25  C   UNL     1      47.756   1.369   6.920  0.00  0.00    +0.000 C 
ATOM     26  N   UNL     1      48.365   2.657   6.557  0.00  0.00    +0.000 NA
ATOM     27  C   UNL     1      47.254   3.384   7.187  0.00  0.00    +0.000 C 
ATOM     28  H   UNL     1      48.449   2.814   5.554  0.00  0.00    +0.000 HD
ENDBRANCH  23  24
ENDBRANCH  21  23
ENDBRANCH  16  17
ENDBRANCH  15  16
ENDBRANCH   1  15
TORSDOF 7
ENDMDL
