MODEL 1
REMARK VINA RESULT:    -8.588      0.000      0.000
REMARK INTER + INTRA:         -13.450
REMARK INTER:                 -12.103
REMARK INTRA:                  -1.347
REMARK UNBOUND:                -1.347
REMARK  Name = 
REMARK  7 active torsions:
REMARK  status: ('A' for Active; 'I' for Inactive)
REMARK    1  A    between atoms: C_2  and  C_20
REMARK    2  A    between atoms: N_3  and  C_4
REMARK    3  A    between atoms: C_4  and  C_5
REMARK    4  A    between atoms: C_8  and  C_9
REMARK    5  A    between atoms: C_9  and  N_10
REMARK    6  A    between atoms: N_10  and  C_11
REMARK    7  A    between atoms: C_11  and  C_12
REMARK                            x       y       z     vdW  Elec       q    Type
REMARK                         _______ _______ _______ _____ _____    ______ ____
ROOT
ATOM      1  C   UNL     1      46.551   6.485  12.514  0.00  0.00    +0.000 A 
ATOM      2  C   UNL     1      46.063   5.480  13.354  0.00  0.00    +0.000 A 
ATOM      3  C   UNL     1      45.136   4.552  12.879  0.00  0.00    +0.000 A 
ATOM      4  C   UNL     1      44.683   4.604  11.553  0.00  0.00    +0.000 A 
ATOM      5  C   UNL     1      45.214   5.577  10.697  0.00  0.00    +0.000 A 
ATOM      6  C   UNL     1      46.145   6.506  11.172  0.00  0.00    +0.000 A 
ENDROOT
BRANCH   1   7
ATOM      7  C   UNL     1      47.524   7.504  13.040  0.00  0.00    +0.000 C 
BRANCH   7  10
ATOM      8  O   UNL     1      49.892   6.928  14.401  0.00  0.00    +0.000 OA
ATOM      9  C   UNL     1      48.842   7.007  15.031  0.00  0.00    +0.000 C 
ATOM     10  N   UNL     1      47.650   7.389  14.465  0.00  0.00    +0.000 N 
ATOM     11  H   UNL     1      46.807   7.176  14.978  0.00  0.00    +0.000 HD
BRANCH   9  12
ATOM     12  C   UNL     1      48.722   6.585  16.421  0.00  0.00    +0.000 A 
ATOM     13  C   UNL     1      49.194   7.324  17.494  0.00  0.00    +0.000 A 
ATOM     14  N   UNL     1      48.917   6.619  18.631  0.00  0.00    +0.000 N 
ATOM     15  C   UNL     1      48.686   5.309  18.289  0.00  0.00    +0.000 A 
ATOM     16  C   UNL     1      48.789   4.126  19.025  0.00  0.00    +0.000 A 
ATOM     17  C   UNL     1      48.337   2.956  18.409  0.00  0.00    +0.000 A 
ATOM     18  C   UNL     1      47.690   2.999  17.175  0.00  0.00    +0.000 A 
ATOM     19  C   UNL     1      47.623   4.190  16.447  0.00  0.00    +0.000 A 
ATOM     20  C   UNL     1      48.257   5.339  16.964  0.00  0.00    +0.000 A 
ATOM     21  H   UNL     1      48.937   6.985  19.573  0.00  0.00    +0.000 HD
ENDBRANCH   9  12
ENDBRANCH   7  10
ENDBRANCH   1   7
BRANCH   4  22
ATOM     22  C   UNL     1      43.630   3.632  11.070  0.00  0.00    +0.000 C 
BRANCH  22  23
ATOM     23  N   UNL     1      43.810   3.353   9.648  0.00  0.00    +0.000 NA
ATOM     24  H   UNL     1      44.328   4.119   9.218  0.00  0.00    +0.000 HD
BRANCH  23  25
ATOM     25  C   UNL     1      44.523   2.101   9.420  0.00  0.00    +0.000 C 
BRANCH  25  26
ATOM     26  C   UNL     1      45.589   2.275   8.361  0.00  0.00    +0.000 A 
ATOM     27  C   UNL     1      45.749   3.498   7.693  0.00  0.00    +0.000 A 
ATOM     28  C   UNL     1      46.706   3.653   6.705  0.00  0.00    +0.000 A 
ATOM     29  C   UNL     1      47.559   2.602   6.386  0.00  0.00    +0.000 A 
ATOM     30  C   UNL     1      47.436   1.380   7.060  0.00  0.00    +0.000 A 
ATOM     31  C   UNL     1      46.456   1.228   8.037  0.00  0.00    +0.000 A 
ENDBRANCH  25  26
ENDBRANCH  23  25
ENDBRANCH  22  23
ENDBRANCH   4  22
TORSDOF 7
ENDMDL
MODEL 2
REMARK VINA RESULT:    -8.465      1.410      2.328
REMARK INTER + INTRA:         -13.276
REMARK INTER:                 -12.235
REMARK INTRA:                  -1.041
REMARK UNBOUND:                -1.347
REMARK  Name = 
REMARK  7 active torsions:
REMARK  status: ('A' for Active; 'I' for Inactive)
REMARK    1  A    between atoms: C_2  and  C_20
REMARK    2  A    between atoms: N_3  and  C_4
REMARK    3  A    between atoms: C_4  and  C_5
REMARK    4  A    between atoms: C_8  and  C_9
REMARK    5  A    between atoms: C_9  and  N_10
REMARK    6  A    between atoms: N_10  and  C_11
REMARK    7  A    between atoms: C_11  and  C_12
REMARK                            x       y       z     vdW  Elec       q    Type
REMARK                         _______ _______ _______ _____ _____    ______ ____
ROOT
ATOM      1  C   UNL     1      46.962   6.094  12.866  0.00  0.00    +0.000 A 
ATOM      2  C   UNL     1      46.082   5.143  13.393  0.00  0.00    +0.000 A 
ATOM      3  C   UNL     1      44.981   4.715  12.650  0.00  0.00    +0.000 A 
ATOM      4  C   UNL     1      44.741   5.220  11.364  0.00  0.00    +0.000 A 
ATOM      5  C   UNL     1      45.654   6.130  10.817  0.00  0.00    +0.000 A 
ATOM      6  C   UNL     1      46.758   6.559  11.559  0.00  0.00    +0.000 A 
ENDROOT
BRANCH   1   7
ATOM      7  C   UNL     1      48.127   6.579  13.683  0.00  0.00    +0.000 C 
BRANCH   7  10
ATOM      8  O   UNL     1      50.066   6.359  15.679  0.00  0.00    +0.000 OA
ATOM      9  C   UNL     1      48.883   6.231  15.976  0.00  0.00    +0.000 C 
ATOM     10  N   UNL     1      47.856   6.428  15.085  0.00  0.00    +0.000 N 
ATOM     11  H   UNL     1      46.952   6.052  15.333  0.00  0.00    +0.000 HD
BRANCH   9  12
ATOM     12  C   UNL     1      48.444   5.736  17.276  0.00  0.00    +0.000 A 
ATOM     13  C   UNL     1      47.670   4.599  17.445  0.00  0.00    +0.000 A 
ATOM     14  N   UNL     1      47.446   4.452  18.785  0.00  0.00    +0.000 N 
ATOM     15  C   UNL     1      47.679   5.656  19.404  0.00  0.00    +0.000 A 
ATOM     16  C   UNL     1      47.214   6.185  20.610  0.00  0.00    +0.000 A 
ATOM     17  C   UNL     1      47.764   7.402  21.022  0.00  0.00    +0.000 A 
ATOM     18  C   UNL     1      48.824   7.981  20.326  0.00  0.00    +0.000 A 
ATOM     19  C   UNL     1      49.254   7.447  19.108  0.00  0.00    +0.000 A 
ATOM     20  C   UNL     1      48.570   6.335  18.575  0.00  0.00    +0.000 A 
ATOM     21  H   UNL     1      47.108   3.615  19.240  0.00  0.00    +0.000 HD
ENDBRANCH   9  12
ENDBRANCH   7  10
ENDBRANCH   1   7
BRANCH   4  22
ATOM     22  C   UNL     1      43.510   4.795  10.597  0.00  0.00    +0.000 C 
BRANCH  22  23
ATOM     23  N   UNL     1      43.885   4.234   9.303  0.00  0.00    +0.000 NA
ATOM     24  H   UNL     1      44.597   4.825   8.874  0.00  0.00    +0.000 HD
BRANCH  23  25
ATOM     25  C   UNL     1      44.396   2.873   9.422  0.00  0.00    +0.000 C 
BRANCH  25  26
ATOM     26  C   UNL     1      45.502   2.624   8.420  0.00  0.00    +0.000 A 
ATOM     27  C   UNL     1      46.059   1.346   8.264  0.00  0.00    +0.000 A 
ATOM     28  C   UNL     1      47.088   1.120   7.366  0.00  0.00    +0.000 A 
ATOM     29  C   UNL     1      47.560   2.155   6.567  0.00  0.00    +0.000 A 
ATOM     30  C   UNL     1      46.999   3.434   6.686  0.00  0.00    +0.000 A 
ATOM     31  C   UNL     1      45.979   3.656   7.607  0.00  0.00    +0.000 A 
ENDBRANCH  25  26
ENDBRANCH  23  25
ENDBRANCH  22  23
ENDBRANCH   4  22
TORSDOF 7
ENDMDL
MODEL 3
REMARK VINA RESULT:    -8.033      1.976      8.599
REMARK INTER + INTRA:         -12.668
REMARK INTER:                 -11.535
REMARK INTRA:                  -1.133
REMARK UNBOUND:                -1.347
REMARK  Name = 
REMARK  7 active torsions:
REMARK  status: ('A' for Active; 'I' for Inactive)
REMARK    1  A    between atoms: C_2  and  C_20
REMARK    2  A    between atoms: N_3  and  C_4
REMARK    3  A    between atoms: C_4  and  C_5
REMARK    4  A    between atoms: C_8  and  C_9
REMARK    5  A    between atoms: C_9  and  N_10
REMARK    6  A    between atoms: N_10  and  C_11
REMARK    7  A    between atoms: C_11  and  C_12
REMARK                            x       y       z     vdW  Elec       q    Type
REMARK                         _______ _______ _______ _____ _____    ______ ____
ROOT
ATOM      1  C   UNL     1      46.135   7.117  12.351  0.00  0.00    +0.000 A 
ATOM      2  C   UNL     1      46.646   8.316  12.858  0.00  0.00    +0.000 A 
ATOM      3  C   UNL     1      47.622   8.301  13.855  0.00  0.00    +0.000 A 
ATOM      4  C   UNL     1      48.114   7.089  14.360  0.00  0.00    +0.000 A 
ATOM      5  C   UNL     1      47.642   5.890  13.812  0.00  0.00    +0.000 A 
ATOM      6  C   UNL     1      46.665   5.903  12.813  0.00  0.00    +0.000 A 
ENDROOT
BRANCH   1   7
ATOM      7  C   UNL     1      45.058   7.138  11.302  0.00  0.00    +0.000 C 
BRANCH   7  10
ATOM      8  O   UNL     1      42.879   5.483  10.753  0.00  0.00    +0.000 OA
ATOM      9  C   UNL     1      43.997   5.146  10.377  0.00  0.00    +0.000 C 
ATOM     10  N   UNL     1      45.108   5.943  10.506  0.00  0.00    +0.000 N 
ATOM     11  H   UNL     1      46.009   5.497  10.417  0.00  0.00    +0.000 HD
BRANCH   9  12
ATOM     12  C   UNL     1      44.289   3.814   9.861  0.00  0.00    +0.000 A 
ATOM     13  C   UNL     1      43.975   2.643  10.533  0.00  0.00    +0.000 A 
ATOM     14  N   UNL     1      44.404   1.601   9.761  0.00  0.00    +0.000 N 
ATOM     15  C   UNL     1      45.333   2.071   8.864  0.00  0.00    +0.000 A 
ATOM     16  C   UNL     1      46.365   1.431   8.175  0.00  0.00    +0.000 A 
ATOM     17  C   UNL     1      47.047   2.184   7.215  0.00  0.00    +0.000 A 
ATOM     18  C   UNL     1      46.620   3.465   6.872  0.00  0.00    +0.000 A 
ATOM     19  C   UNL     1      45.602   4.094   7.594  0.00  0.00    +0.000 A 
ATOM     20  C   UNL     1      45.041   3.424   8.701  0.00  0.00    +0.000 A 
ATOM     21  H   UNL     1      44.130   0.633   9.867  0.00  0.00    +0.000 HD
ENDBRANCH   9  12
ENDBRANCH   7  10
ENDBRANCH   1   7
BRANCH   4  22
ATOM     22  C   UNL     1      49.125   7.088  15.485  0.00  0.00    +0.000 C 
BRANCH  22  23
ATOM     23  N   UNL     1      48.474   7.403  16.752  0.00  0.00    +0.000 NA
ATOM     24  H   UNL     1      47.469   7.256  16.660  0.00  0.00    +0.000 HD
BRANCH  23  25
ATOM     25  C   UNL     1      48.982   6.585  17.848  0.00  0.00    +0.000 C 
BRANCH  25  26
ATOM     26  C   UNL     1      48.781   5.113  17.558  0.00  0.00    +0.000 A 
ATOM     27  C   UNL     1      49.873   4.235  17.501  0.00  0.00    +0.000 A 
ATOM     28  C   UNL     1      49.697   2.893  17.210  0.00  0.00    +0.000 A 
ATOM     29  C   UNL     1      48.419   2.382  17.011  0.00  0.00    +0.000 A 
ATOM     30  C   UNL     1      47.311   3.236  17.092  0.00  0.00    +0.000 A 
ATOM     31  C   UNL     1      47.501   4.588  17.363  0.00  0.00    +0.000 A 
ENDBRANCH  25  26
ENDBRANCH  23  25
ENDBRANCH  22  23
ENDBRANCH   4  22
TORSDOF 7
ENDMDL
MODEL 4
REMARK VINA RESULT:    -7.500      2.595      8.787
REMARK INTER + INTRA:         -11.916
REMARK INTER:                 -11.261
REMARK INTRA:                  -0.655
REMARK UNBOUND:                -1.347
REMARK  Name = 
REMARK  7 active torsions:
REMARK  status: ('A' for Active; 'I' for Inactive)
REMARK    1  A    between atoms: C_2  and  C_20
REMARK    2  A    between atoms: N_3  and  C_4
REMARK    3  A    between atoms: C_4  and  C_5
REMARK    4  A    between atoms: C_8  and  C_9
REMARK    5  A    between atoms: C_9  and  N_10
REMARK    6  A    between atoms: N_10  and  C_11
REMARK    7  A    between atoms: C_11  and  C_12
REMARK                            x       y       z     vdW  Elec       q    Type
REMARK                         _______ _______ _______ _____ _____    ______ ____
ROOT
ATOM      1  C   UNL     1      46.942   6.593  12.973  0.00  0.00    +0.000 A 
ATOM      2  C   UNL     1      46.613   5.339  13.498  0.00  0.00    +0.000 A 
ATOM      3  C   UNL     1      47.201   4.894  14.683  0.00  0.00    +0.000 A 
ATOM      4  C   UNL     1      48.122   5.696  15.373  0.00  0.00    +0.000 A 
ATOM      5  C   UNL     1      48.408   6.973  14.876  0.00  0.00    +0.000 A 
ATOM      6  C   UNL     1      47.819   7.420  13.689  0.00  0.00    +0.000 A 
ENDROOT
BRANCH   1   7
ATOM      7  C   UNL     1      46.333   7.053  11.678  0.00  0.00    +0.000 C 
BRANCH   7  10
ATOM      8  O   UNL     1      43.793   6.049  11.105  0.00  0.00    +0.000 OA
ATOM      9  C   UNL     1      44.780   5.457  10.683  0.00  0.00    +0.000 C 
ATOM     10  N   UNL     1      46.062   5.932  10.823  0.00  0.00    +0.000 N 
ATOM     11  H   UNL     1      46.815   5.274  10.688  0.00  0.00    +0.000 HD
BRANCH   9  12
ATOM     12  C   UNL     1      44.712   4.124  10.095  0.00  0.00    +0.000 A 
ATOM     13  C   UNL     1      44.115   3.039  10.716  0.00  0.00    +0.000 A 
ATOM     14  N   UNL     1      44.249   1.965   9.882  0.00  0.00    +0.000 N 
ATOM     15  C   UNL     1      45.255   2.229   8.984  0.00  0.00    +0.000 A 
ATOM     16  C   UNL     1      46.078   1.384   8.236  0.00  0.00    +0.000 A 
ATOM     17  C   UNL     1      46.918   1.987   7.296  0.00  0.00    +0.000 A 
ATOM     18  C   UNL     1      46.831   3.352   7.029  0.00  0.00    +0.000 A 
ATOM     19  C   UNL     1      46.020   4.181   7.809  0.00  0.00    +0.000 A 
ATOM     20  C   UNL     1      45.321   3.618   8.897  0.00  0.00    +0.000 A 
ATOM     21  H   UNL     1      43.736   1.097   9.948  0.00  0.00    +0.000 HD
ENDBRANCH   9  12
ENDBRANCH   7  10
ENDBRANCH   1   7
BRANCH   4  22
ATOM     22  C   UNL     1      48.799   5.175  16.620  0.00  0.00    +0.000 C 
BRANCH  22  23
ATOM     23  N   UNL     1      48.863   3.717  16.592  0.00  0.00    +0.000 NA
ATOM     24  H   UNL     1      49.520   3.423  15.869  0.00  0.00    +0.000 HD
BRANCH  23  25
ATOM     25  C   UNL     1      49.278   3.161  17.875  0.00  0.00    +0.000 C 
BRANCH  25  26
ATOM     26  C   UNL     1      50.722   2.711  17.824  0.00  0.00    +0.000 A 
ATOM     27  C   UNL     1      51.054   1.393  17.479  0.00  0.00    +0.000 A 
ATOM     28  C   UNL     1      52.372   0.970  17.457  0.00  0.00    +0.000 A 
ATOM     29  C   UNL     1      53.399   1.865  17.737  0.00  0.00    +0.000 A 
ATOM     30  C   UNL     1      53.092   3.194  18.057  0.00  0.00    +0.000 A 
ATOM     31  C   UNL     1      51.762   3.604  18.098  0.00  0.00    +0.000 A 
ENDBRANCH  25  26
ENDBRANCH  23  25
ENDBRANCH  22  23
ENDBRANCH   4  22
TORSDOF 7
ENDMDL
MODEL 5
REMARK VINA RESULT:    -6.963      3.983      8.586
REMARK INTER + INTRA:         -11.160
REMARK INTER:                  -9.914
REMARK INTRA:                  -1.245
REMARK UNBOUND:                -1.347
REMARK  Name = 
REMARK  7 active torsions:
REMARK  status: ('A' for Active; 'I' for Inactive)
REMARK    1  A    between atoms: C_2  and  C_20
REMARK    2  A    between atoms: N_3  and  C_4
REMARK    3  A    between atoms: C_4  and  C_5
REMARK    4  A    between atoms: C_8  and  C_9
REMARK    5  A    between atoms: C_9  and  N_10
REMARK    6  A    between atoms: N_10  and  C_11
REMARK    7  A    between atoms: C_11  and  C_12
REMARK                            x       y       z     vdW  Elec       q    Type
REMARK                         _______ _______ _______ _____ _____    ______ ____
ROOT
ATOM      1  C   UNL     1      46.171   7.460  12.536  0.00  0.00    +0.000 A 
ATOM      2  C   UNL     1      47.487   7.347  12.074  0.00  0.00    +0.000 A 
ATOM      3  C   UNL     1      48.217   8.488  11.739  0.00  0.00    +0.000 A 
ATOM      4  C   UNL     1      47.652   9.766  11.867  0.00  0.00    +0.000 A 
ATOM      5  C   UNL     1      46.355   9.880  12.382  0.00  0.00    +0.000 A 
ATOM      6  C   UNL     1      45.623   8.738  12.719  0.00  0.00    +0.000 A 
ENDROOT
BRANCH   1   7
ATOM      7  C   UNL     1      45.377   6.227  12.862  0.00  0.00    +0.000 C 
BRANCH   7  10
ATOM      8  O   UNL     1      43.369   5.709  10.994  0.00  0.00    +0.000 OA
ATOM      9  C   UNL     1      44.386   5.024  10.986  0.00  0.00    +0.000 C 
ATOM     10  N   UNL     1      45.469   5.272  11.794  0.00  0.00    +0.000 N 
ATOM     11  H   UNL     1      46.137   4.524  11.912  0.00  0.00    +0.000 HD
BRANCH   9  12
ATOM     12  C   UNL     1      44.507   3.798  10.205  0.00  0.00    +0.000 A 
ATOM     13  C   UNL     1      44.017   2.570  10.619  0.00  0.00    +0.000 A 
ATOM     14  N   UNL     1      44.320   1.659   9.647  0.00  0.00    +0.000 N 
ATOM     15  C   UNL     1      45.328   2.170   8.866  0.00  0.00    +0.000 A 
ATOM     16  C   UNL     1      46.282   1.547   8.058  0.00  0.00    +0.000 A 
ATOM     17  C   UNL     1      47.087   2.378   7.274  0.00  0.00    +0.000 A 
ATOM     18  C   UNL     1      46.849   3.749   7.205  0.00  0.00    +0.000 A 
ATOM     19  C   UNL     1      45.907   4.352   8.043  0.00  0.00    +0.000 A 
ATOM     20  C   UNL     1      45.230   3.554   8.989  0.00  0.00    +0.000 A 
ATOM     21  H   UNL     1      43.913   0.739   9.551  0.00  0.00    +0.000 HD
ENDBRANCH   9  12
ENDBRANCH   7  10
ENDBRANCH   1   7
BRANCH   4  22
ATOM     22  C   UNL     1      48.432  10.988  11.440  0.00  0.00    +0.000 C 
BRANCH  22  23
ATOM     23  N   UNL     1      47.524  12.092  11.144  0.00  0.00    +0.000 NA
ATOM     24  H   UNL     1      47.908  12.955  11.529  0.00  0.00    +0.000 HD
BRANCH  23  25
ATOM     25  C   UNL     1      47.308  12.257   9.711  0.00  0.00    +0.000 C 
BRANCH  25  26
ATOM     26  C   UNL     1      45.830  12.277   9.389  0.00  0.00    +0.000 A 
ATOM     27  C   UNL     1      45.375  12.069   8.079  0.00  0.00    +0.000 A 
ATOM     28  C   UNL     1      44.024  12.112   7.776  0.00  0.00    +0.000 A 
ATOM     29  C   UNL     1      43.088  12.322   8.781  0.00  0.00    +0.000 A 
ATOM     30  C   UNL     1      43.518  12.504  10.102  0.00  0.00    +0.000 A 
ATOM     31  C   UNL     1      44.879  12.480  10.393  0.00  0.00    +0.000 A 
ENDBRANCH  25  26
ENDBRANCH  23  25
ENDBRANCH  22  23
ENDBRANCH   4  22
TORSDOF 7
ENDMDL
MODEL 6
REMARK VINA RESULT:    -6.907      2.555      9.339
REMARK INTER + INTRA:         -11.080
REMARK INTER:                 -10.012
REMARK INTRA:                  -1.068
REMARK UNBOUND:                -1.347
REMARK  Name = 
REMARK  7 active torsions:
REMARK  status: ('A' for Active; 'I' for Inactive)
REMARK    1  A    between atoms: C_2  and  C_20
REMARK    2  A    between atoms: N_3  and  C_4
REMARK    3  A    between atoms: C_4  and  C_5
REMARK    4  A    between atoms: C_8  and  C_9
REMARK    5  A    between atoms: C_9  and  N_10
REMARK    6  A    between atoms: N_10  and  C_11
REMARK    7  A    between atoms: C_11  and  C_12
REMARK                            x       y       z     vdW  Elec       q    Type
REMARK                         _______ _______ _______ _____ _____    ______ ____
ROOT
ATOM      1  C   UNL     1      45.844   6.525  12.983  0.00  0.00    +0.000 A 
ATOM      2  C   UNL     1      45.708   7.899  12.760  0.00  0.00    +0.000 A 
ATOM      3  C   UNL     1      46.735   8.776  13.111  0.00  0.00    +0.000 A 
ATOM      4  C   UNL     1      47.923   8.297  13.683  0.00  0.00    +0.000 A 
ATOM      5  C   UNL     1      48.081   6.916  13.854  0.00  0.00    +0.000 A 
ATOM      6  C   UNL     1      47.052   6.037  13.502  0.00  0.00    +0.000 A 
ENDROOT
BRANCH   1   7
ATOM      7  C   UNL     1      44.721   5.588  12.636  0.00  0.00    +0.000 C 
BRANCH   7  10
ATOM      8  O   UNL     1      43.250   5.215  10.293  0.00  0.00    +0.000 OA
ATOM      9  C   UNL     1      44.257   4.540  10.483  0.00  0.00    +0.000 C 
ATOM     10  N   UNL     1      45.100   4.728  11.552  0.00  0.00    +0.000 N 
ATOM     11  H   UNL     1      45.740   3.978  11.771  0.00  0.00    +0.000 HD
BRANCH   9  12
ATOM     12  C   UNL     1      44.601   3.386   9.661  0.00  0.00    +0.000 A 
ATOM     13  C   UNL     1      44.231   2.086   9.967  0.00  0.00    +0.000 A 
ATOM     14  N   UNL     1      44.734   1.277   8.988  0.00  0.00    +0.000 N 
ATOM     15  C   UNL     1      45.739   1.948   8.335  0.00  0.00    +0.000 A 
ATOM     16  C   UNL     1      46.833   1.492   7.597  0.00  0.00    +0.000 A 
ATOM     17  C   UNL     1      47.598   2.458   6.936  0.00  0.00    +0.000 A 
ATOM     18  C   UNL     1      47.199   3.793   6.909  0.00  0.00    +0.000 A 
ATOM     19  C   UNL     1      46.116   4.229   7.677  0.00  0.00    +0.000 A 
ATOM     20  C   UNL     1      45.458   3.302   8.512  0.00  0.00    +0.000 A 
ATOM     21  H   UNL     1      44.455   0.321   8.809  0.00  0.00    +0.000 HD
ENDBRANCH   9  12
ENDBRANCH   7  10
ENDBRANCH   1   7
BRANCH   4  22
ATOM     22  C   UNL     1      49.002   9.264  14.116  0.00  0.00    +0.000 C 
BRANCH  22  23
ATOM     23  N   UNL     1      48.479  10.195  15.112  0.00  0.00    +0.000 NA
ATOM     24  H   UNL     1      47.512   9.951  15.325  0.00  0.00    +0.000 HD
BRANCH  23  25
ATOM     25  C   UNL     1      49.263  10.180  16.342  0.00  0.00    +0.000 C 
BRANCH  25  26
ATOM     26  C   UNL     1      48.782   9.089  17.273  0.00  0.00    +0.000 A 
ATOM     27  C   UNL     1      47.713   9.312  18.153  0.00  0.00    +0.000 A 
ATOM     28  C   UNL     1      47.287   8.324  19.025  0.00  0.00    +0.000 A 
ATOM     29  C   UNL     1      47.889   7.071  19.011  0.00  0.00    +0.000 A 
ATOM     30  C   UNL     1      48.941   6.817  18.121  0.00  0.00    +0.000 A 
ATOM     31  C   UNL     1      49.376   7.824  17.263  0.00  0.00    +0.000 A 
ENDBRANCH  25  26
ENDBRANCH  23  25
ENDBRANCH  22  23
ENDBRANCH   4  22
TORSDOF 7
ENDMDL
MODEL 7
REMARK VINA RESULT:    -6.816      1.854      8.128
REMARK INTER + INTRA:         -10.952
REMARK INTER:                  -9.387
REMARK INTRA:                  -1.565
REMARK UNBOUND:                -1.347
REMARK  Name = 
REMARK  7 active torsions:
REMARK  status: ('A' for Active; 'I' for Inactive)
REMARK    1  A    between atoms: C_2  and  C_20
REMARK    2  A    between atoms: N_3  and  C_4
REMARK    3  A    between atoms: C_4  and  C_5
REMARK    4  A    between atoms: C_8  and  C_9
REMARK    5  A    between atoms: C_9  and  N_10
REMARK    6  A    between atoms: N_10  and  C_11
REMARK    7  A    between atoms: C_11  and  C_12
REMARK                            x       y       z     vdW  Elec       q    Type
REMARK                         _______ _______ _______ _____ _____    ______ ____
ROOT
ATOM      1  C   UNL     1      48.409   7.889  13.618  0.00  0.00    +0.000 A 
ATOM      2  C   UNL     1      48.195   9.054  14.363  0.00  0.00    +0.000 A 
ATOM      3  C   UNL     1      48.300   9.030  15.754  0.00  0.00    +0.000 A 
ATOM      4  C   UNL     1      48.628   7.846  16.430  0.00  0.00    +0.000 A 
ATOM      5  C   UNL     1      48.895   6.694  15.680  0.00  0.00    +0.000 A 
ATOM      6  C   UNL     1      48.792   6.716  14.286  0.00  0.00    +0.000 A 
ENDROOT
BRANCH   1   7
ATOM      7  C   UNL     1      48.261   7.910  12.123  0.00  0.00    +0.000 C 
BRANCH   7  10
ATOM      8  O   UNL     1      45.492   8.205  11.933  0.00  0.00    +0.000 OA
ATOM      9  C   UNL     1      45.993   7.105  11.727  0.00  0.00    +0.000 C 
ATOM     10  N   UNL     1      47.349   6.888  11.693  0.00  0.00    +0.000 N 
ATOM     11  H   UNL     1      47.666   5.933  11.780  0.00  0.00    +0.000 HD
BRANCH   9  12
ATOM     12  C   UNL     1      45.202   5.884  11.618  0.00  0.00    +0.000 A 
ATOM     13  C   UNL     1      44.539   5.299  12.684  0.00  0.00    +0.000 A 
ATOM     14  N   UNL     1      43.918   4.176  12.214  0.00  0.00    +0.000 N 
ATOM     15  C   UNL     1      44.507   3.814  11.027  0.00  0.00    +0.000 A 
ATOM     16  C   UNL     1      44.584   2.586  10.366  0.00  0.00    +0.000 A 
ATOM     17  C   UNL     1      45.144   2.590   9.086  0.00  0.00    +0.000 A 
ATOM     18  C   UNL     1      45.479   3.786   8.454  0.00  0.00    +0.000 A 
ATOM     19  C   UNL     1      45.419   4.999   9.146  0.00  0.00    +0.000 A 
ATOM     20  C   UNL     1      45.050   4.987  10.507  0.00  0.00    +0.000 A 
ATOM     21  H   UNL     1      43.188   3.662  12.687  0.00  0.00    +0.000 HD
ENDBRANCH   9  12
ENDBRANCH   7  10
ENDBRANCH   1   7
BRANCH   4  22
ATOM     22  C   UNL     1      48.674   7.820  17.941  0.00  0.00    +0.000 C 
BRANCH  22  23
ATOM     23  N   UNL     1      47.528   7.090  18.472  0.00  0.00    +0.000 NA
ATOM     24  H   UNL     1      46.966   6.737  17.698  0.00  0.00    +0.000 HD
BRANCH  23  25
ATOM     25  C   UNL     1      47.933   5.975  19.322  0.00  0.00    +0.000 C 
BRANCH  25  26
ATOM     26  C   UNL     1      48.309   4.771  18.486  0.00  0.00    +0.000 A 
ATOM     27  C   UNL     1      47.357   4.125  17.684  0.00  0.00    +0.000 A 
ATOM     28  C   UNL     1      47.692   3.007  16.939  0.00  0.00    +0.000 A 
ATOM     29  C   UNL     1      48.998   2.530  16.939  0.00  0.00    +0.000 A 
ATOM     30  C   UNL     1      49.972   3.178  17.711  0.00  0.00    +0.000 A 
ATOM     31  C   UNL     1      49.621   4.288  18.474  0.00  0.00    +0.000 A 
ENDBRANCH  25  26
ENDBRANCH  23  25
ENDBRANCH  22  23
ENDBRANCH   4  22
TORSDOF 7
ENDMDL
MODEL 8
REMARK VINA RESULT:    -6.812      1.994      3.320
REMARK INTER + INTRA:         -10.946
REMARK INTER:                 -10.432
REMARK INTRA:                  -0.514
REMARK UNBOUND:                -1.347
REMARK  Name = 
REMARK  7 active torsions:
REMARK  status: ('A' for Active; 'I' for Inactive)
REMARK    1  A    between atoms: C_2  and  C_20
REMARK    2  A    between atoms: N_3  and  C_4
REMARK    3  A    between atoms: C_4  and  C_5
REMARK    4  A    between atoms: C_8  and  C_9
REMARK    5  A    between atoms: C_9  and  N_10
REMARK    6  A    between atoms: N_10  and  C_11
REMARK    7  A    between atoms: C_11  and  C_12
REMARK                            x       y       z     vdW  Elec       q    Type
REMARK                         _______ _______ _______ _____ _____    ______ ____
ROOT
ATOM      1  C   UNL     1      46.535   5.074  13.561  0.00  0.00    +0.000 A 
ATOM      2  C   UNL     1      45.803   3.901  13.348  0.00  0.00    +0.000 A 
ATOM      3  C   UNL     1      44.828   3.849  12.352  0.00  0.00    +0.000 A 
ATOM      4  C   UNL     1      44.569   4.964  11.541  0.00  0.00    +0.000 A 
ATOM      5  C   UNL     1      45.340   6.119  11.718  0.00  0.00    +0.000 A 
ATOM      6  C   UNL     1      46.319   6.172  12.715  0.00  0.00    +0.000 A 
ENDROOT
BRANCH   1   7
ATOM      7  C   UNL     1      47.560   5.137  14.658  0.00  0.00    +0.000 C 
BRANCH   7  10
ATOM      8  O   UNL     1      48.898   6.096  16.912  0.00  0.00    +0.000 OA
ATOM      9  C   UNL     1      48.596   6.878  16.016  0.00  0.00    +0.000 C 
ATOM     10  N   UNL     1      48.035   6.481  14.826  0.00  0.00    +0.000 N 
ATOM     11  H   UNL     1      47.585   7.193  14.269  0.00  0.00    +0.000 HD
BRANCH   9  12
ATOM     12  C   UNL     1      48.689   8.325  16.166  0.00  0.00    +0.000 A 
ATOM     13  C   UNL     1      49.375   9.147  15.287  0.00  0.00    +0.000 A 
ATOM     14  N   UNL     1      49.256  10.428  15.746  0.00  0.00    +0.000 N 
ATOM     15  C   UNL     1      48.899  10.388  17.072  0.00  0.00    +0.000 A 
ATOM     16  C   UNL     1      49.059  11.313  18.106  0.00  0.00    +0.000 A 
ATOM     17  C   UNL     1      48.445  11.014  19.325  0.00  0.00    +0.000 A 
ATOM     18  C   UNL     1      47.603   9.911  19.452  0.00  0.00    +0.000 A 
ATOM     19  C   UNL     1      47.480   8.985  18.412  0.00  0.00    +0.000 A 
ATOM     20  C   UNL     1      48.255   9.165  17.247  0.00  0.00    +0.000 A 
ATOM     21  H   UNL     1      49.454  11.267  15.218  0.00  0.00    +0.000 HD
ENDBRANCH   9  12
ENDBRANCH   7  10
ENDBRANCH   1   7
BRANCH   4  22
ATOM     22  C   UNL     1      43.465   4.914  10.509  0.00  0.00    +0.000 C 
BRANCH  22  23
ATOM     23  N   UNL     1      43.966   4.357   9.257  0.00  0.00    +0.000 NA
ATOM     24  H   UNL     1      44.722   4.945   8.905  0.00  0.00    +0.000 HD
BRANCH  23  25
ATOM     25  C   UNL     1      44.453   2.991   9.418  0.00  0.00    +0.000 C 
BRANCH  25  26
ATOM     26  C   UNL     1      45.529   2.680   8.401  0.00  0.00    +0.000 A 
ATOM     27  C   UNL     1      46.048   3.685   7.571  0.00  0.00    +0.000 A 
ATOM     28  C   UNL     1      47.014   3.399   6.621  0.00  0.00    +0.000 A 
ATOM     29  C   UNL     1      47.520   2.109   6.504  0.00  0.00    +0.000 A 
ATOM     30  C   UNL     1      47.037   1.096   7.343  0.00  0.00    +0.000 A 
ATOM     31  C   UNL     1      46.050   1.389   8.280  0.00  0.00    +0.000 A 
ENDBRANCH  25  26
ENDBRANCH  23  25
ENDBRANCH  22  23
ENDBRANCH   4  22
TORSDOF 7
ENDMDL
MODEL 9
REMARK VINA RESULT:    -6.669      4.144      8.005
REMARK INTER + INTRA:         -10.745
REMARK INTER:                  -9.676
REMARK INTRA:                  -1.068
REMARK UNBOUND:                -1.347
REMARK  Name = 
REMARK  7 active torsions:
REMARK  status: ('A' for Active; 'I' for Inactive)
REMARK    1  A    between atoms: C_2  and  C_20
REMARK    2  A    between atoms: N_3  and  C_4
REMARK    3  A    between atoms: C_4  and  C_5
REMARK    4  A    between atoms: C_8  and  C_9
REMARK    5  A    between atoms: C_9  and  N_10
REMARK    6  A    between atoms: N_10  and  C_11
REMARK    7  A    between atoms: C_11  and  C_12
REMARK                            x       y       z     vdW  Elec       q    Type
REMARK                         _______ _______ _______ _____ _____    ______ ____
ROOT
ATOM      1  C   UNL     1      47.919   7.309  12.959  0.00  0.00    +0.000 A 
ATOM      2  C   UNL     1      48.449   7.352  11.665  0.00  0.00    +0.000 A 
ATOM      3  C   UNL     1      49.702   7.921  11.436  0.00  0.00    +0.000 A 
ATOM      4  C   UNL     1      50.456   8.449  12.494  0.00  0.00    +0.000 A 
ATOM      5  C   UNL     1      49.948   8.355  13.795  0.00  0.00    +0.000 A 
ATOM      6  C   UNL     1      48.693   7.785  14.027  0.00  0.00    +0.000 A 
ENDROOT
BRANCH   1   7
ATOM      7  C   UNL     1      46.553   6.728  13.196  0.00  0.00    +0.000 C 
BRANCH   7  10
ATOM      8  O   UNL     1      44.427   6.733  11.388  0.00  0.00    +0.000 OA
ATOM      9  C   UNL     1      45.146   5.743  11.464  0.00  0.00    +0.000 C 
ATOM     10  N   UNL     1      46.276   5.689  12.244  0.00  0.00    +0.000 N 
ATOM     11  H   UNL     1      46.651   4.775  12.451  0.00  0.00    +0.000 HD
BRANCH   9  12
ATOM     12  C   UNL     1      44.813   4.473  10.828  0.00  0.00    +0.000 A 
ATOM     13  C   UNL     1      44.171   3.432  11.479  0.00  0.00    +0.000 A 
ATOM     14  N   UNL     1      44.037   2.410  10.582  0.00  0.00    +0.000 N 
ATOM     15  C   UNL     1      44.929   2.606   9.556  0.00  0.00    +0.000 A 
ATOM     16  C   UNL     1      45.512   1.716   8.651  0.00  0.00    +0.000 A 
ATOM     17  C   UNL     1      46.282   2.271   7.625  0.00  0.00    +0.000 A 
ATOM     18  C   UNL     1      46.343   3.651   7.441  0.00  0.00    +0.000 A 
ATOM     19  C   UNL     1      45.773   4.521   8.375  0.00  0.00    +0.000 A 
ATOM     20  C   UNL     1      45.169   3.978   9.528  0.00  0.00    +0.000 A 
ATOM     21  H   UNL     1      43.426   1.611  10.684  0.00  0.00    +0.000 HD
ENDBRANCH   9  12
ENDBRANCH   7  10
ENDBRANCH   1   7
BRANCH   4  22
ATOM     22  C   UNL     1      51.784   9.119  12.222  0.00  0.00    +0.000 C 
BRANCH  22  23
ATOM     23  N   UNL     1      51.884   9.494  10.815  0.00  0.00    +0.000 NA
ATOM     24  H   UNL     1      51.646  10.481  10.712  0.00  0.00    +0.000 HD
BRANCH  23  25
ATOM     25  C   UNL     1      53.221   9.263  10.279  0.00  0.00    +0.000 C 
BRANCH  25  26
ATOM     26  C   UNL     1      53.258   7.996   9.453  0.00  0.00    +0.000 A 
ATOM     27  C   UNL     1      53.622   6.770  10.030  0.00  0.00    +0.000 A 
ATOM     28  C   UNL     1      53.682   5.613   9.271  0.00  0.00    +0.000 A 
ATOM     29  C   UNL     1      53.337   5.641   7.925  0.00  0.00    +0.000 A 
ATOM     30  C   UNL     1      52.942   6.849   7.335  0.00  0.00    +0.000 A 
ATOM     31  C   UNL     1      52.906   8.011   8.101  0.00  0.00    +0.000 A 
ENDBRANCH  25  26
ENDBRANCH  23  25
ENDBRANCH  22  23
ENDBRANCH   4  22
TORSDOF 7
ENDMDL
