MODEL 1
REMARK VINA RESULT:    -6.561      0.000      0.000
REMARK INTER + INTRA:         -10.316
REMARK INTER:                  -9.245
REMARK INTRA:                  -1.070
REMARK UNBOUND:                -1.070
REMARK  Name = 
REMARK  8 active torsions:
REMARK  status: ('A' for Active; 'I' for Inactive)
REMARK    1  A    between atoms: C_1  and  C_2
REMARK    2  A    between atoms: C_2  and  O_3
REMARK    3  A    between atoms: O_3  and  C_4
REMARK    4  A    between atoms: C_6  and  C_7
REMARK    5  A    between atoms: C_12  and  O_13
REMARK    6  A    between atoms: O_13  and  C_14
REMARK    7  A    between atoms: C_14  and  C_15
REMARK    8  A    between atoms: C_19  and  N_20
REMARK                            x       y       z     vdW  Elec       q    Type
REMARK                         _______ _______ _______ _____ _____    ______ ____
ROOT
ATOM      1  O   UNL     1      45.230   6.446  13.295  0.00  0.00    +0.000 OA
ENDROOT
BRANCH   1   7
ATOM      2  C   UNL     1      47.704   6.073  13.356  0.00  0.00    +0.000 A 
ATOM      3  C   UNL     1      48.944   6.582  12.942  0.00  0.00    +0.000 A 
ATOM      4  C   UNL     1      49.045   7.722  12.133  0.00  0.00    +0.000 A 
ATOM      5  C   UNL     1      47.877   8.374  11.738  0.00  0.00    +0.000 A 
ATOM      6  C   UNL     1      46.635   7.891  12.167  0.00  0.00    +0.000 A 
ATOM      7  C   UNL     1      46.532   6.750  12.980  0.00  0.00    +0.000 A 
BRANCH   4   8
ATOM      8  C   UNL     1      50.420   8.150  11.745  0.00  0.00    +0.000 C 
ATOM      9  N   UNL     1      51.228   7.266  11.092  0.00  0.00    +0.000 N 
ATOM     10  O   UNL     1      50.836   9.277  12.004  0.00  0.00    +0.000 OA
ATOM     11  H   UNL     1      50.981   6.322  10.842  0.00  0.00    +0.000 HD
ATOM     12  H   UNL     1      52.154   7.595  10.850  0.00  0.00    +0.000 HD
ENDBRANCH   4   8
BRANCH   2  13
ATOM     13  O   UNL     1      47.599   4.938  14.117  0.00  0.00    +0.000 OA
BRANCH  13  15
ATOM     14  C   UNL     1      47.551   3.702  16.158  0.00  0.00    +0.000 C 
ATOM     15  C   UNL     1      47.709   5.075  15.534  0.00  0.00    +0.000 C 
ENDBRANCH  13  15
ENDBRANCH   2  13
ENDBRANCH   1   7
BRANCH   1  16
ATOM     16  C   UNL     1      44.265   6.409  12.243  0.00  0.00    +0.000 C 
BRANCH  16  17
ATOM     17  C   UNL     1      44.059   5.001  11.747  0.00  0.00    +0.000 A 
ATOM     18  C   UNL     1      43.501   4.046  12.588  0.00  0.00    +0.000 A 
ATOM     19  N   UNL     1      43.325   2.754  12.250  0.00  0.00    +0.000 NA
ATOM     20  C   UNL     1      43.740   2.400  11.008  0.00  0.00    +0.000 A 
ATOM     21  C   UNL     1      44.330   3.249  10.064  0.00  0.00    +0.000 A 
ATOM     22  C   UNL     1      44.487   4.574  10.481  0.00  0.00    +0.000 A 
BRANCH  21  23
ATOM     23  N   UNL     1      44.732   2.803   8.821  0.00  0.00    +0.000 N 
ATOM     24  C   UNL     1      45.105   1.407   8.553  0.00  0.00    +0.000 C 
ATOM     25  C   UNL     1      46.556   1.305   8.033  0.00  0.00    +0.000 C 
ATOM     26  N   UNL     1      46.836   2.195   6.885  0.00  0.00    +0.000 NA
ATOM     27  C   UNL     1      46.510   3.582   7.278  0.00  0.00    +0.000 C 
ATOM     28  C   UNL     1      45.049   3.767   7.756  0.00  0.00    +0.000 C 
ATOM     29  H   UNL     1      46.208   1.932   6.124  0.00  0.00    +0.000 HD
ENDBRANCH  21  23
ENDBRANCH  16  17
ENDBRANCH   1  16
TORSDOF 7
ENDMDL
MODEL 2
REMARK VINA RESULT:    -6.370      3.510      5.767
REMARK INTER + INTRA:         -10.048
REMARK INTER:                  -9.043
REMARK INTRA:                  -1.005
REMARK UNBOUND:                -1.070
REMARK  Name = 
REMARK  8 active torsions:
REMARK  status: ('A' for Active; 'I' for Inactive)
REMARK    1  A    between atoms: C_1  and  C_2
REMARK    2  A    between atoms: C_2  and  O_3
REMARK    3  A    between atoms: O_3  and  C_4
REMARK    4  A    between atoms: C_6  and  C_7
REMARK    5  A    between atoms: C_12  and  O_13
REMARK    6  A    between atoms: O_13  and  C_14
REMARK    7  A    between atoms: C_14  and  C_15
REMARK    8  A    between atoms: C_19  and  N_20
REMARK                            x       y       z     vdW  Elec       q    Type
REMARK                         _______ _______ _______ _____ _____    ______ ____
ROOT
ATOM      1  O   UNL     1      49.314   6.288  15.055  0.00  0.00    +0.000 OA
ENDROOT
BRANCH   1   7
ATOM      2  C   UNL     1      48.454   5.050  17.052  0.00  0.00    +0.000 A 
ATOM      3  C   UNL     1      48.005   5.189  18.374  0.00  0.00    +0.000 A 
ATOM      4  C   UNL     1      47.996   6.429  19.027  0.00  0.00    +0.000 A 
ATOM      5  C   UNL     1      48.437   7.558  18.337  0.00  0.00    +0.000 A 
ATOM      6  C   UNL     1      48.862   7.435  17.009  0.00  0.00    +0.000 A 
ATOM      7  C   UNL     1      48.870   6.194  16.351  0.00  0.00    +0.000 A 
BRANCH   4   8
ATOM      8  C   UNL     1      47.514   6.441  20.438  0.00  0.00    +0.000 C 
ATOM      9  N   UNL     1      47.250   5.254  21.057  0.00  0.00    +0.000 N 
ATOM     10  O   UNL     1      47.349   7.494  21.049  0.00  0.00    +0.000 OA
ATOM     11  H   UNL     1      47.348   4.342  20.640  0.00  0.00    +0.000 HD
ATOM     12  H   UNL     1      46.921   5.307  22.013  0.00  0.00    +0.000 HD
ENDBRANCH   4   8
BRANCH   2  13
ATOM     13  O   UNL     1      48.498   3.834  16.422  0.00  0.00    +0.000 OA
BRANCH  13  15
ATOM     14  C   UNL     1      50.224   2.392  17.219  0.00  0.00    +0.000 C 
ATOM     15  C   UNL     1      48.735   2.677  17.224  0.00  0.00    +0.000 C 
ENDBRANCH  13  15
ENDBRANCH   2  13
ENDBRANCH   1   7
BRANCH   1  16
ATOM     16  C   UNL     1      49.045   7.488  14.329  0.00  0.00    +0.000 C 
BRANCH  16  17
ATOM     17  C   UNL     1      47.730   7.397  13.600  0.00  0.00    +0.000 A 
ATOM     18  C   UNL     1      46.882   8.497  13.562  0.00  0.00    +0.000 A 
ATOM     19  N   UNL     1      45.667   8.493  12.978  0.00  0.00    +0.000 NA
ATOM     20  C   UNL     1      45.281   7.322  12.413  0.00  0.00    +0.000 A 
ATOM     21  C   UNL     1      46.023   6.135  12.388  0.00  0.00    +0.000 A 
ATOM     22  C   UNL     1      47.270   6.207  13.015  0.00  0.00    +0.000 A 
BRANCH  21  23
ATOM     23  N   UNL     1      45.549   4.982  11.795  0.00  0.00    +0.000 N 
ATOM     24  C   UNL     1      45.100   4.927  10.396  0.00  0.00    +0.000 C 
ATOM     25  C   UNL     1      43.626   4.478  10.298  0.00  0.00    +0.000 C 
ATOM     26  N   UNL     1      43.339   3.226  11.033  0.00  0.00    +0.000 NA
ATOM     27  C   UNL     1      43.744   3.409  12.443  0.00  0.00    +0.000 C 
ATOM     28  C   UNL     1      45.231   3.804  12.617  0.00  0.00    +0.000 C 
ATOM     29  H   UNL     1      43.921   2.489  10.635  0.00  0.00    +0.000 HD
ENDBRANCH  21  23
ENDBRANCH  16  17
ENDBRANCH   1  16
TORSDOF 7
ENDMDL
MODEL 3
REMARK VINA RESULT:    -6.325      2.469      4.012
REMARK INTER + INTRA:          -9.983
REMARK INTER:                  -9.040
REMARK INTRA:                  -0.943
REMARK UNBOUND:                -1.070
REMARK  Name = 
REMARK  8 active torsions:
REMARK  status: ('A' for Active; 'I' for Inactive)
REMARK    1  A    between atoms: C_1  and  C_2
REMARK    2  A    between atoms: C_2  and  O_3
REMARK    3  A    between atoms: O_3  and  C_4
REMARK    4  A    between atoms: C_6  and  C_7
REMARK    5  A    between atoms: C_12  and  O_13
REMARK    6  A    between atoms: O_13  and  C_14
REMARK    7  A    between atoms: C_14  and  C_15
REMARK    8  A    between atoms: C_19  and  N_20
REMARK                            x       y       z     vdW  Elec       q    Type
REMARK                         _______ _______ _______ _____ _____    ______ ____
ROOT
ATOM      1  O   UNL     1      47.417   5.968  13.098  0.00  0.00    +0.000 OA
ENDROOT
BRANCH   1   7
ATOM      2  C   UNL     1      48.577   6.522  15.244  0.00  0.00    +0.000 A 
ATOM      3  C   UNL     1      48.806   6.094  16.560  0.00  0.00    +0.000 A 
ATOM      4  C   UNL     1      48.201   4.942  17.081  0.00  0.00    +0.000 A 
ATOM      5  C   UNL     1      47.356   4.194  16.260  0.00  0.00    +0.000 A 
ATOM      6  C   UNL     1      47.142   4.598  14.936  0.00  0.00    +0.000 A 
ATOM      7  C   UNL     1      47.749   5.751  14.413  0.00  0.00    +0.000 A 
BRANCH   4   8
ATOM      8  C   UNL     1      48.509   4.604  18.500  0.00  0.00    +0.000 C 
ATOM      9  N   UNL     1      48.690   3.296  18.844  0.00  0.00    +0.000 N 
ATOM     10  O   UNL     1      48.599   5.476  19.361  0.00  0.00    +0.000 OA
ATOM     11  H   UNL     1      48.630   2.511  18.214  0.00  0.00    +0.000 HD
ATOM     12  H   UNL     1      48.893   3.109  19.817  0.00  0.00    +0.000 HD
ENDBRANCH   4   8
BRANCH   2  13
ATOM     13  O   UNL     1      49.138   7.668  14.743  0.00  0.00    +0.000 OA
BRANCH  13  15
ATOM     14  C   UNL     1      48.221   9.570  13.632  0.00  0.00    +0.000 C 
ATOM     15  C   UNL     1      48.452   8.899  14.972  0.00  0.00    +0.000 C 
ENDBRANCH  13  15
ENDBRANCH   2  13
ENDBRANCH   1   7
BRANCH   1  16
ATOM     16  C   UNL     1      46.166   6.590  12.805  0.00  0.00    +0.000 C 
BRANCH  16  17
ATOM     17  C   UNL     1      45.197   5.602  12.208  0.00  0.00    +0.000 A 
ATOM     18  C   UNL     1      44.086   5.196  12.938  0.00  0.00    +0.000 A 
ATOM     19  N   UNL     1      43.195   4.281  12.508  0.00  0.00    +0.000 NA
ATOM     20  C   UNL     1      43.437   3.740  11.288  0.00  0.00    +0.000 A 
ATOM     21  C   UNL     1      44.518   4.043  10.453  0.00  0.00    +0.000 A 
ATOM     22  C   UNL     1      45.407   4.995  10.961  0.00  0.00    +0.000 A 
BRANCH  21  23
ATOM     23  N   UNL     1      44.693   3.437   9.224  0.00  0.00    +0.000 N 
ATOM     24  C   UNL     1      44.682   1.978   9.042  0.00  0.00    +0.000 C 
ATOM     25  C   UNL     1      46.014   1.480   8.440  0.00  0.00    +0.000 C 
ATOM     26  N   UNL     1      46.413   2.200   7.211  0.00  0.00    +0.000 NA
ATOM     27  C   UNL     1      46.478   3.645   7.516  0.00  0.00    +0.000 C 
ATOM     28  C   UNL     1      45.154   4.224   8.070  0.00  0.00    +0.000 C 
ATOM     29  H   UNL     1      45.680   2.061   6.515  0.00  0.00    +0.000 HD
ENDBRANCH  21  23
ENDBRANCH  16  17
ENDBRANCH   1  16
TORSDOF 7
ENDMDL
MODEL 4
REMARK VINA RESULT:    -6.277      4.126      7.267
REMARK INTER + INTRA:          -9.916
REMARK INTER:                  -9.136
REMARK INTRA:                  -0.780
REMARK UNBOUND:                -1.070
REMARK  Name = 
REMARK  8 active torsions:
REMARK  status: ('A' for Active; 'I' for Inactive)
REMARK    1  A    between atoms: C_1  and  C_2
REMARK    2  A    between atoms: C_2  and  O_3
REMARK    3  A    between atoms: O_3  and  C_4
REMARK    4  A    between atoms: C_6  and  C_7
REMARK    5  A    between atoms: C_12  and  O_13
REMARK    6  A    between atoms: O_13  and  C_14
REMARK    7  A    between atoms: C_14  and  C_15
REMARK    8  A    between atoms: C_19  and  N_20
REMARK                            x       y       z     vdW  Elec       q    Type
REMARK                         _______ _______ _______ _____ _____    ______ ____
ROOT
ATOM      1  O   UNL     1      44.350   5.862  10.627  0.00  0.00    +0.000 OA
ENDROOT
BRANCH   1   7
ATOM      2  C   UNL     1      44.313   3.424  10.070  0.00  0.00    +0.000 A 
ATOM      3  C   UNL     1      44.907   2.425   9.283  0.00  0.00    +0.000 A 
ATOM      4  C   UNL     1      45.909   2.716   8.347  0.00  0.00    +0.000 A 
ATOM      5  C   UNL     1      46.335   4.036   8.204  0.00  0.00    +0.000 A 
ATOM      6  C   UNL     1      45.769   5.037   9.003  0.00  0.00    +0.000 A 
ATOM      7  C   UNL     1      44.766   4.747   9.942  0.00  0.00    +0.000 A 
BRANCH   4   8
ATOM      8  C   UNL     1      46.445   1.569   7.559  0.00  0.00    +0.000 C 
ATOM      9  N   UNL     1      46.967   1.805   6.320  0.00  0.00    +0.000 N 
ATOM     10  O   UNL     1      46.422   0.422   8.000  0.00  0.00    +0.000 OA
ATOM     11  H   UNL     1      47.024   2.705   5.871  0.00  0.00    +0.000 HD
ATOM     12  H   UNL     1      47.317   0.999   5.817  0.00  0.00    +0.000 HD
ENDBRANCH   4   8
BRANCH   2  13
ATOM     13  O   UNL     1      43.308   3.149  10.960  0.00  0.00    +0.000 OA
BRANCH  13  15
ATOM     14  C   UNL     1      43.276   3.920  13.218  0.00  0.00    +0.000 C 
ATOM     15  C   UNL     1      43.679   2.790  12.291  0.00  0.00    +0.000 C 
ENDBRANCH  13  15
ENDBRANCH   2  13
ENDBRANCH   1   7
BRANCH   1  16
ATOM     16  C   UNL     1      45.123   6.303  11.745  0.00  0.00    +0.000 C 
BRANCH  16  17
ATOM     17  C   UNL     1      45.326   7.795  11.708  0.00  0.00    +0.000 A 
ATOM     18  C   UNL     1      46.526   8.341  12.148  0.00  0.00    +0.000 A 
ATOM     19  N   UNL     1      46.779   9.664  12.198  0.00  0.00    +0.000 NA
ATOM     20  C   UNL     1      45.773  10.479  11.796  0.00  0.00    +0.000 A 
ATOM     21  C   UNL     1      44.513  10.072  11.344  0.00  0.00    +0.000 A 
ATOM     22  C   UNL     1      44.315   8.688  11.321  0.00  0.00    +0.000 A 
BRANCH  21  23
ATOM     23  N   UNL     1      43.540  10.973  10.960  0.00  0.00    +0.000 N 
ATOM     24  C   UNL     1      42.165  10.937  11.478  0.00  0.00    +0.000 C 
ATOM     25  C   UNL     1      41.141  10.758  10.336  0.00  0.00    +0.000 C 
ATOM     26  N   UNL     1      41.305  11.735   9.237  0.00  0.00    +0.000 NA
ATOM     27  C   UNL     1      42.689  11.637   8.727  0.00  0.00    +0.000 C 
ATOM     28  C   UNL     1      43.769  11.864   9.812  0.00  0.00    +0.000 C 
ATOM     29  H   UNL     1      41.183  12.670   9.628  0.00  0.00    +0.000 HD
ENDBRANCH  21  23
ENDBRANCH  16  17
ENDBRANCH   1  16
TORSDOF 7
ENDMDL
MODEL 5
REMARK VINA RESULT:    -6.258      3.667      8.009
REMARK INTER + INTRA:          -9.889
REMARK INTER:                  -8.576
REMARK INTRA:                  -1.313
REMARK UNBOUND:                -1.070
REMARK  Name = 
REMARK  8 active torsions:
REMARK  status: ('A' for Active; 'I' for Inactive)
REMARK    1  A    between atoms: C_1  and  C_2
REMARK    2  A    between atoms: C_2  and  O_3
REMARK    3  A    between atoms: O_3  and  C_4
REMARK    4  A    between atoms: C_6  and  C_7
REMARK    5  A    between atoms: C_12  and  O_13
REMARK    6  A    between atoms: O_13  and  C_14
REMARK    7  A    between atoms: C_14  and  C_15
REMARK    8  A    between atoms: C_19  and  N_20
REMARK                            x       y       z     vdW  Elec       q    Type
REMARK                         _______ _______ _______ _____ _____    ______ ____
ROOT
ATOM      1  O   UNL     1      48.716   6.135  12.893  0.00  0.00    +0.000 OA
ENDROOT
BRANCH   1   7
ATOM      2  C   UNL     1      46.677   4.861  13.585  0.00  0.00    +0.000 A 
ATOM      3  C   UNL     1      45.287   4.756  13.421  0.00  0.00    +0.000 A 
ATOM      4  C   UNL     1      44.565   5.654  12.624  0.00  0.00    +0.000 A 
ATOM      5  C   UNL     1      45.252   6.675  11.966  0.00  0.00    +0.000 A 
ATOM      6  C   UNL     1      46.642   6.773  12.102  0.00  0.00    +0.000 A 
ATOM      7  C   UNL     1      47.368   5.873  12.898  0.00  0.00    +0.000 A 
BRANCH   4   8
ATOM      8  C   UNL     1      43.090   5.448  12.546  0.00  0.00    +0.000 C 
ATOM      9  N   UNL     1      42.367   6.175  11.646  0.00  0.00    +0.000 N 
ATOM     10  O   UNL     1      42.517   4.642  13.276  0.00  0.00    +0.000 OA
ATOM     11  H   UNL     1      42.743   6.861  11.011  0.00  0.00    +0.000 HD
ATOM     12  H   UNL     1      41.370   6.007  11.628  0.00  0.00    +0.000 HD
ENDBRANCH   4   8
BRANCH   2  13
ATOM     13  O   UNL     1      47.382   4.007  14.393  0.00  0.00    +0.000 OA
BRANCH  13  15
ATOM     14  C   UNL     1      48.082   3.110  16.490  0.00  0.00    +0.000 C 
ATOM     15  C   UNL     1      47.351   4.246  15.800  0.00  0.00    +0.000 C 
ENDBRANCH  13  15
ENDBRANCH   2  13
ENDBRANCH   1   7
BRANCH   1  16
ATOM     16  C   UNL     1      49.153   7.459  13.201  0.00  0.00    +0.000 C 
BRANCH  16  17
ATOM     17  C   UNL     1      49.115   7.709  14.686  0.00  0.00    +0.000 A 
ATOM     18  C   UNL     1      48.412   8.799  15.187  0.00  0.00    +0.000 A 
ATOM     19  N   UNL     1      48.363   9.130  16.492  0.00  0.00    +0.000 NA
ATOM     20  C   UNL     1      49.064   8.333  17.336  0.00  0.00    +0.000 A 
ATOM     21  C   UNL     1      49.825   7.216  16.973  0.00  0.00    +0.000 A 
ATOM     22  C   UNL     1      49.837   6.931  15.604  0.00  0.00    +0.000 A 
BRANCH  21  23
ATOM     23  N   UNL     1      50.517   6.462  17.900  0.00  0.00    +0.000 N 
ATOM     24  C   UNL     1      51.677   5.630  17.550  0.00  0.00    +0.000 C 
ATOM     25  C   UNL     1      51.429   4.147  17.904  0.00  0.00    +0.000 C 
ATOM     26  N   UNL     1      50.984   3.938  19.299  0.00  0.00    +0.000 NA
ATOM     27  C   UNL     1      49.768   4.747  19.528  0.00  0.00    +0.000 C 
ATOM     28  C   UNL     1      49.963   6.257  19.247  0.00  0.00    +0.000 C 
ATOM     29  H   UNL     1      51.715   4.293  19.917  0.00  0.00    +0.000 HD
ENDBRANCH  21  23
ENDBRANCH  16  17
ENDBRANCH   1  16
TORSDOF 7
ENDMDL
MODEL 6
REMARK VINA RESULT:    -6.184      2.103      3.417
REMARK INTER + INTRA:          -9.785
REMARK INTER:                  -8.904
REMARK INTRA:                  -0.880
REMARK UNBOUND:                -1.070
REMARK  Name = 
REMARK  8 active torsions:
REMARK  status: ('A' for Active; 'I' for Inactive)
REMARK    1  A    between atoms: C_1  and  C_2
REMARK    2  A    between atoms: C_2  and  O_3
REMARK    3  A    between atoms: O_3  and  C_4
REMARK    4  A    between atoms: C_6  and  C_7
REMARK    5  A    between atoms: C_12  and  O_13
REMARK    6  A    between atoms: O_13  and  C_14
REMARK    7  A    between atoms: C_14  and  C_15
REMARK    8  A    between atoms: C_19  and  N_20
REMARK                            x       y       z     vdW  Elec       q    Type
REMARK                         _______ _______ _______ _____ _____    ______ ____
ROOT
ATOM      1  O   UNL     1      45.310   7.365  12.378  0.00  0.00    +0.000 OA
ENDROOT
BRANCH   1   7
ATOM      2  C   UNL     1      46.068   9.736  12.126  0.00  0.00    +0.000 A 
ATOM      3  C   UNL     1      47.176  10.557  11.868  0.00  0.00    +0.000 A 
ATOM      4  C   UNL     1      48.463  10.033  11.693  0.00  0.00    +0.000 A 
ATOM      5  C   UNL     1      48.644   8.652  11.767  0.00  0.00    +0.000 A 
ATOM      6  C   UNL     1      47.542   7.820  11.998  0.00  0.00    +0.000 A 
ATOM      7  C   UNL     1      46.250   8.344  12.172  0.00  0.00    +0.000 A 
BRANCH   4   8
ATOM      8  C   UNL     1      49.560  11.012  11.444  0.00  0.00    +0.000 C 
ATOM      9  N   UNL     1      49.682  12.091  12.270  0.00  0.00    +0.000 N 
ATOM     10  O   UNL     1      50.349  10.867  10.513  0.00  0.00    +0.000 OA
ATOM     11  H   UNL     1      49.084  12.300  13.053  0.00  0.00    +0.000 HD
ATOM     12  H   UNL     1      50.437  12.733  12.064  0.00  0.00    +0.000 HD
ENDBRANCH   4   8
BRANCH   2  13
ATOM     13  O   UNL     1      44.814  10.248  12.333  0.00  0.00    +0.000 OA
BRANCH  13  15
ATOM     14  C   UNL     1      43.897  11.592  10.588  0.00  0.00    +0.000 C 
ATOM     15  C   UNL     1      43.896  10.223  11.240  0.00  0.00    +0.000 C 
ENDBRANCH  13  15
ENDBRANCH   2  13
ENDBRANCH   1   7
BRANCH   1  16
ATOM     16  C   UNL     1      45.726   6.135  12.972  0.00  0.00    +0.000 C 
BRANCH  16  17
ATOM     17  C   UNL     1      45.000   4.965  12.358  0.00  0.00    +0.000 A 
ATOM     18  C   UNL     1      44.133   4.205  13.134  0.00  0.00    +0.000 A 
ATOM     19  N   UNL     1      43.480   3.115  12.687  0.00  0.00    +0.000 NA
ATOM     20  C   UNL     1      43.718   2.764  11.399  0.00  0.00    +0.000 A 
ATOM     21  C   UNL     1      44.573   3.424  10.509  0.00  0.00    +0.000 A 
ATOM     22  C   UNL     1      45.222   4.544  11.038  0.00  0.00    +0.000 A 
BRANCH  21  23
ATOM     23  N   UNL     1      44.763   2.993   9.212  0.00  0.00    +0.000 N 
ATOM     24  C   UNL     1      44.965   1.581   8.859  0.00  0.00    +0.000 C 
ATOM     25  C   UNL     1      46.318   1.370   8.146  0.00  0.00    +0.000 C 
ATOM     26  N   UNL     1      46.527   2.275   6.994  0.00  0.00    +0.000 NA
ATOM     27  C   UNL     1      46.388   3.669   7.465  0.00  0.00    +0.000 C 
ATOM     28  C   UNL     1      45.027   3.966   8.140  0.00  0.00    +0.000 C 
ATOM     29  H   UNL     1      45.782   2.099   6.318  0.00  0.00    +0.000 HD
ENDBRANCH  21  23
ENDBRANCH  16  17
ENDBRANCH   1  16
TORSDOF 7
ENDMDL
MODEL 7
REMARK VINA RESULT:    -6.155      3.875      6.345
REMARK INTER + INTRA:          -9.744
REMARK INTER:                  -8.864
REMARK INTRA:                  -0.880
REMARK UNBOUND:                -1.070
REMARK  Name = 
REMARK  8 active torsions:
REMARK  status: ('A' for Active; 'I' for Inactive)
REMARK    1  A    between atoms: C_1  and  C_2
REMARK    2  A    between atoms: C_2  and  O_3
REMARK    3  A    between atoms: O_3  and  C_4
REMARK    4  A    between atoms: C_6  and  C_7
REMARK    5  A    between atoms: C_12  and  O_13
REMARK    6  A    between atoms: O_13  and  C_14
REMARK    7  A    between atoms: C_14  and  C_15
REMARK    8  A    between atoms: C_19  and  N_20
REMARK                            x       y       z     vdW  Elec       q    Type
REMARK                         _______ _______ _______ _____ _____    ______ ____
ROOT
ATOM      1  O   UNL     1      49.249   5.604  15.796  0.00  0.00    +0.000 OA
ENDROOT
BRANCH   1   7
ATOM      2  C   UNL     1      49.641   4.633  18.068  0.00  0.00    +0.000 A 
ATOM      3  C   UNL     1      49.263   4.700  19.417  0.00  0.00    +0.000 A 
ATOM      4  C   UNL     1      48.343   5.649  19.883  0.00  0.00    +0.000 A 
ATOM      5  C   UNL     1      47.779   6.544  18.974  0.00  0.00    +0.000 A 
ATOM      6  C   UNL     1      48.128   6.469  17.621  0.00  0.00    +0.000 A 
ATOM      7  C   UNL     1      49.049   5.518  17.151  0.00  0.00    +0.000 A 
BRANCH   4   8
ATOM      8  C   UNL     1      48.040   5.631  21.343  0.00  0.00    +0.000 C 
ATOM      9  N   UNL     1      47.763   6.808  21.976  0.00  0.00    +0.000 N 
ATOM     10  O   UNL     1      48.037   4.582  21.983  0.00  0.00    +0.000 OA
ATOM     11  H   UNL     1      47.747   7.716  21.541  0.00  0.00    +0.000 HD
ATOM     12  H   UNL     1      47.567   6.752  22.967  0.00  0.00    +0.000 HD
ENDBRANCH   4   8
BRANCH   2  13
ATOM     13  O   UNL     1      50.567   3.731  17.615  0.00  0.00    +0.000 OA
BRANCH  13  15
ATOM     14  C   UNL     1      51.364   1.494  17.373  0.00  0.00    +0.000 C 
ATOM     15  C   UNL     1      50.137   2.385  17.405  0.00  0.00    +0.000 C 
ENDBRANCH  13  15
ENDBRANCH   2  13
ENDBRANCH   1   7
BRANCH   1  16
ATOM     16  C   UNL     1      48.938   6.833  15.139  0.00  0.00    +0.000 C 
BRANCH  16  17
ATOM     17  C   UNL     1      48.084   6.595  13.920  0.00  0.00    +0.000 A 
ATOM     18  C   UNL     1      48.325   7.313  12.755  0.00  0.00    +0.000 A 
ATOM     19  N   UNL     1      47.585   7.204  11.635  0.00  0.00    +0.000 NA
ATOM     20  C   UNL     1      46.543   6.337  11.690  0.00  0.00    +0.000 A 
ATOM     21  C   UNL     1      46.175   5.561  12.796  0.00  0.00    +0.000 A 
ATOM     22  C   UNL     1      46.982   5.726  13.926  0.00  0.00    +0.000 A 
BRANCH  21  23
ATOM     23  N   UNL     1      45.091   4.706  12.769  0.00  0.00    +0.000 N 
ATOM     24  C   UNL     1      45.172   3.327  12.269  0.00  0.00    +0.000 C 
ATOM     25  C   UNL     1      44.203   3.102  11.088  0.00  0.00    +0.000 C 
ATOM     26  N   UNL     1      42.813   3.517  11.377  0.00  0.00    +0.000 NA
ATOM     27  C   UNL     1      42.826   4.938  11.787  0.00  0.00    +0.000 C 
ATOM     28  C   UNL     1      43.735   5.224  13.007  0.00  0.00    +0.000 C 
ATOM     29  H   UNL     1      42.479   2.967  12.169  0.00  0.00    +0.000 HD
ENDBRANCH  21  23
ENDBRANCH  16  17
ENDBRANCH   1  16
TORSDOF 7
ENDMDL
MODEL 8
REMARK VINA RESULT:    -6.131      3.192      4.759
REMARK INTER + INTRA:          -9.711
REMARK INTER:                  -8.756
REMARK INTRA:                  -0.954
REMARK UNBOUND:                -1.070
REMARK  Name = 
REMARK  8 active torsions:
REMARK  status: ('A' for Active; 'I' for Inactive)
REMARK    1  A    between atoms: C_1  and  C_2
REMARK    2  A    between atoms: C_2  and  O_3
REMARK    3  A    between atoms: O_3  and  C_4
REMARK    4  A    between atoms: C_6  and  C_7
REMARK    5  A    between atoms: C_12  and  O_13
REMARK    6  A    between atoms: O_13  and  C_14
REMARK    7  A    between atoms: C_14  and  C_15
REMARK    8  A    between atoms: C_19  and  N_20
REMARK                            x       y       z     vdW  Elec       q    Type
REMARK                         _______ _______ _______ _____ _____    ______ ____
ROOT
ATOM      1  O   UNL     1      48.623   6.116  13.774  0.00  0.00    +0.000 OA
ENDROOT
BRANCH   1   7
ATOM      2  C   UNL     1      48.577   5.858  16.262  0.00  0.00    +0.000 A 
ATOM      3  C   UNL     1      48.595   6.552  17.481  0.00  0.00    +0.000 A 
ATOM      4  C   UNL     1      48.728   7.946  17.538  0.00  0.00    +0.000 A 
ATOM      5  C   UNL     1      48.832   8.663  16.346  0.00  0.00    +0.000 A 
ATOM      6  C   UNL     1      48.788   7.983  15.123  0.00  0.00    +0.000 A 
ATOM      7  C   UNL     1      48.653   6.586  15.063  0.00  0.00    +0.000 A 
BRANCH   4   8
ATOM      8  C   UNL     1      48.754   8.564  18.895  0.00  0.00    +0.000 C 
ATOM      9  N   UNL     1      47.987   9.667  19.134  0.00  0.00    +0.000 N 
ATOM     10  O   UNL     1      49.451   8.102  19.795  0.00  0.00    +0.000 OA
ATOM     11  H   UNL     1      47.389  10.121  18.463  0.00  0.00    +0.000 HD
ATOM     12  H   UNL     1      48.036  10.056  20.067  0.00  0.00    +0.000 HD
ENDBRANCH   4   8
BRANCH   2  13
ATOM     13  O   UNL     1      48.484   4.492  16.203  0.00  0.00    +0.000 OA
BRANCH  13  15
ATOM     14  C   UNL     1      47.400   2.893  17.604  0.00  0.00    +0.000 C 
ATOM     15  C   UNL     1      47.216   3.899  16.484  0.00  0.00    +0.000 C 
ENDBRANCH  13  15
ENDBRANCH   2  13
ENDBRANCH   1   7
BRANCH   1  16
ATOM     16  C   UNL     1      48.535   7.060  12.706  0.00  0.00    +0.000 C 
BRANCH  16  17
ATOM     17  C   UNL     1      47.113   7.205  12.228  0.00  0.00    +0.000 A 
ATOM     18  C   UNL     1      46.529   8.465  12.167  0.00  0.00    +0.000 A 
ATOM     19  N   UNL     1      45.251   8.686  11.801  0.00  0.00    +0.000 NA
ATOM     20  C   UNL     1      44.521   7.587  11.490  0.00  0.00    +0.000 A 
ATOM     21  C   UNL     1      44.972   6.262  11.520  0.00  0.00    +0.000 A 
ATOM     22  C   UNL     1      46.304   6.103  11.913  0.00  0.00    +0.000 A 
BRANCH  21  23
ATOM     23  N   UNL     1      44.156   5.197  11.194  0.00  0.00    +0.000 N 
ATOM     24  C   UNL     1      43.225   4.580  12.150  0.00  0.00    +0.000 C 
ATOM     25  C   UNL     1      43.540   3.081  12.348  0.00  0.00    +0.000 C 
ATOM     26  N   UNL     1      43.633   2.324  11.080  0.00  0.00    +0.000 NA
ATOM     27  C   UNL     1      44.651   2.969  10.224  0.00  0.00    +0.000 C 
ATOM     28  C   UNL     1      44.365   4.463   9.937  0.00  0.00    +0.000 C 
ATOM     29  H   UNL     1      42.733   2.398  10.604  0.00  0.00    +0.000 HD
ENDBRANCH  21  23
ENDBRANCH  16  17
ENDBRANCH   1  16
TORSDOF 7
ENDMDL
MODEL 9
REMARK VINA RESULT:    -6.081      4.009      6.485
REMARK INTER + INTRA:          -9.639
REMARK INTER:                  -8.808
REMARK INTRA:                  -0.832
REMARK UNBOUND:                -1.070
REMARK  Name = 
REMARK  8 active torsions:
REMARK  status: ('A' for Active; 'I' for Inactive)
REMARK    1  A    between atoms: C_1  and  C_2
REMARK    2  A    between atoms: C_2  and  O_3
REMARK    3  A    between atoms: O_3  and  C_4
REMARK    4  A    between atoms: C_6  and  C_7
REMARK    5  A    between atoms: C_12  and  O_13
REMARK    6  A    between atoms: O_13  and  C_14
REMARK    7  A    between atoms: C_14  and  C_15
REMARK    8  A    between atoms: C_19  and  N_20
REMARK                            x       y       z     vdW  Elec       q    Type
REMARK                         _______ _______ _______ _____ _____    ______ ____
ROOT
ATOM      1  O   UNL     1      48.485   4.767  17.181  0.00  0.00    +0.000 OA
ENDROOT
BRANCH   1   7
ATOM      2  C   UNL     1      50.836   4.451  17.974  0.00  0.00    +0.000 A 
ATOM      3  C   UNL     1      51.880   3.522  18.105  0.00  0.00    +0.000 A 
ATOM      4  C   UNL     1      51.728   2.178  17.738  0.00  0.00    +0.000 A 
ATOM      5  C   UNL     1      50.504   1.756  17.218  0.00  0.00    +0.000 A 
ATOM      6  C   UNL     1      49.464   2.679  17.058  0.00  0.00    +0.000 A 
ATOM      7  C   UNL     1      49.615   4.027  17.423  0.00  0.00    +0.000 A 
BRANCH   4   8
ATOM      8  C   UNL     1      52.906   1.288  17.945  0.00  0.00    +0.000 C 
ATOM      9  N   UNL     1      53.096   0.236  17.096  0.00  0.00    +0.000 N 
ATOM     10  O   UNL     1      53.702   1.480  18.860  0.00  0.00    +0.000 OA
ATOM     11  H   UNL     1      52.499  -0.007  16.322  0.00  0.00    +0.000 HD
ATOM     12  H   UNL     1      53.905  -0.345  17.273  0.00  0.00    +0.000 HD
ENDBRANCH   4   8
BRANCH   2  13
ATOM     13  O   UNL     1      50.970   5.757  18.365  0.00  0.00    +0.000 OA
BRANCH  13  15
ATOM     14  C   UNL     1      49.558   7.258  19.569  0.00  0.00    +0.000 C 
ATOM     15  C   UNL     1      50.537   6.105  19.680  0.00  0.00    +0.000 C 
ENDBRANCH  13  15
ENDBRANCH   2  13
ENDBRANCH   1   7
BRANCH   1  16
ATOM     16  C   UNL     1      47.443   4.183  16.399  0.00  0.00    +0.000 C 
BRANCH  16  17
ATOM     17  C   UNL     1      47.293   4.893  15.079  0.00  0.00    +0.000 A 
ATOM     18  C   UNL     1      48.098   5.988  14.788  0.00  0.00    +0.000 A 
ATOM     19  N   UNL     1      48.002   6.715  13.657  0.00  0.00    +0.000 NA
ATOM     20  C   UNL     1      47.043   6.329  12.779  0.00  0.00    +0.000 A 
ATOM     21  C   UNL     1      46.156   5.260  12.946  0.00  0.00    +0.000 A 
ATOM     22  C   UNL     1      46.306   4.551  14.142  0.00  0.00    +0.000 A 
BRANCH  21  23
ATOM     23  N   UNL     1      45.201   4.939  12.001  0.00  0.00    +0.000 N 
ATOM     24  C   UNL     1      44.140   5.869  11.588  0.00  0.00    +0.000 C 
ATOM     25  C   UNL     1      42.740   5.275  11.856  0.00  0.00    +0.000 C 
ATOM     26  N   UNL     1      42.555   3.920  11.292  0.00  0.00    +0.000 NA
ATOM     27  C   UNL     1      43.615   3.041  11.830  0.00  0.00    +0.000 C 
ATOM     28  C   UNL     1      45.049   3.549  11.546  0.00  0.00    +0.000 C 
ATOM     29  H   UNL     1      42.685   3.981  10.281  0.00  0.00    +0.000 HD
ENDBRANCH  21  23
ENDBRANCH  16  17
ENDBRANCH   1  16
TORSDOF 7
ENDMDL
