MODEL 1
REMARK VINA RESULT:    -7.832      0.000      0.000
REMARK INTER + INTRA:         -12.406
REMARK INTER:                 -11.267
REMARK INTRA:                  -1.139
REMARK UNBOUND:                -1.139
REMARK  Name = 
REMARK  8 active torsions:
REMARK  status: ('A' for Active; 'I' for Inactive)
REMARK    1  A    between atoms: N_1  and  S_2
REMARK    2  A    between atoms: S_2  and  C_5
REMARK    3  A    between atoms: C_8  and  O_9
REMARK    4  A    between atoms: O_9  and  C_10
REMARK    5  A    between atoms: C_10  and  C_11
REMARK    6  A    between atoms: C_11  and  C_12
REMARK    7  A    between atoms: C_16  and  O_17
REMARK    8  A    between atoms: O_17  and  C_18
REMARK                            x       y       z     vdW  Elec       q    Type
REMARK                         _______ _______ _______ _____ _____    ______ ____
ROOT
ATOM      1  O   UNL     1      43.433   3.659  10.763  0.00  0.00    +0.000 OA
ENDROOT
BRANCH   1   5
ATOM      2  C   UNL     1      46.100   2.639   7.729  0.00  0.00    +0.000 A 
ATOM      3  C   UNL     1      45.804   3.987   7.907  0.00  0.00    +0.000 A 
ATOM      4  C   UNL     1      44.915   4.362   8.920  0.00  0.00    +0.000 A 
ATOM      5  C   UNL     1      44.320   3.398   9.747  0.00  0.00    +0.000 A 
ATOM      6  C   UNL     1      44.627   2.048   9.550  0.00  0.00    +0.000 A 
ATOM      7  C   UNL     1      45.510   1.662   8.538  0.00  0.00    +0.000 A 
BRANCH   2   8
ATOM      8  S   UNL     1      47.199   2.144   6.433  0.00  0.00    +0.000 S 
ATOM      9  O   UNL     1      46.660   2.573   5.164  0.00  0.00    +0.000 OA
ATOM     10  O   UNL     1      47.628   0.787   6.669  0.00  0.00    +0.000 OA
BRANCH   8  11
ATOM     11  N   UNL     1      48.537   3.115   6.726  0.00  0.00    +0.000 NA
ATOM     12  H   UNL     1      48.453   3.542   7.649  0.00  0.00    +0.000 HD
ATOM     13  H   UNL     1      48.654   3.787   5.968  0.00  0.00    +0.000 HD
ENDBRANCH   8  11
ENDBRANCH   2   8
ENDBRANCH   1   5
BRANCH   1  14
ATOM     14  C   UNL     1      43.151   5.044  10.983  0.00  0.00    +0.000 C 
BRANCH  14  15
ATOM     15  C   UNL     1      43.449   5.440  12.430  0.00  0.00    +0.000 C 
BRANCH  15  16
ATOM     16  C   UNL     1      44.943   5.512  12.636  0.00  0.00    +0.000 A 
ATOM     17  C   UNL     1      45.702   6.492  11.985  0.00  0.00    +0.000 A 
ATOM     18  C   UNL     1      47.062   6.635  12.267  0.00  0.00    +0.000 A 
ATOM     19  C   UNL     1      47.681   5.797  13.198  0.00  0.00    +0.000 A 
ATOM     20  C   UNL     1      46.942   4.804  13.836  0.00  0.00    +0.000 A 
ATOM     21  C   UNL     1      45.577   4.671  13.564  0.00  0.00    +0.000 A 
BRANCH  20  22
ATOM     22  O   UNL     1      47.449   3.946  14.780  0.00  0.00    +0.000 OA
BRANCH  22  23
ATOM     23  C   UNL     1      47.246   4.254  16.178  0.00  0.00    +0.000 C 
ATOM     24  C   UNL     1      48.365   5.054  16.887  0.00  0.00    +0.000 C 
ATOM     25  C   UNL     1      48.353   4.033  18.030  0.00  0.00    +0.000 C 
ATOM     26  C   UNL     1      47.548   3.080  17.139  0.00  0.00    +0.000 C 
ENDBRANCH  22  23
ENDBRANCH  20  22
ENDBRANCH  15  16
ENDBRANCH  14  15
ENDBRANCH   1  14
TORSDOF 8
ENDMDL
MODEL 2
REMARK VINA RESULT:    -7.073      3.727      7.966
REMARK INTER + INTRA:         -11.313
REMARK INTER:                 -10.279
REMARK INTRA:                  -1.035
REMARK UNBOUND:                -1.139
REMARK  Name = 
REMARK  8 active torsions:
REMARK  status: ('A' for Active; 'I' for Inactive)
REMARK    1  A    between atoms: N_1  and  S_2
REMARK    2  A    between atoms: S_2  and  C_5
REMARK    3  A    between atoms: C_8  and  O_9
REMARK    4  A    between atoms: O_9  and  C_10
REMARK    5  A    between atoms: C_10  and  C_11
REMARK    6  A    between atoms: C_11  and  C_12
REMARK    7  A    between atoms: C_16  and  O_17
REMARK    8  A    between atoms: O_17  and  C_18
REMARK                            x       y       z     vdW  Elec       q    Type
REMARK                         _______ _______ _______ _____ _____    ______ ____
ROOT
ATOM      1  O   UNL     1      47.020   6.600  12.501  0.00  0.00    +0.000 OA
ENDROOT
BRANCH   1   5
ATOM      2  C   UNL     1      47.821   4.588  16.060  0.00  0.00    +0.000 A 
ATOM      3  C   UNL     1      48.431   5.822  15.861  0.00  0.00    +0.000 A 
ATOM      4  C   UNL     1      48.179   6.524  14.677  0.00  0.00    +0.000 A 
ATOM      5  C   UNL     1      47.329   5.996  13.696  0.00  0.00    +0.000 A 
ATOM      6  C   UNL     1      46.727   4.752  13.913  0.00  0.00    +0.000 A 
ATOM      7  C   UNL     1      46.976   4.040  15.089  0.00  0.00    +0.000 A 
BRANCH   2   8
ATOM      8  S   UNL     1      48.152   3.672  17.538  0.00  0.00    +0.000 S 
ATOM      9  O   UNL     1      48.276   4.588  18.647  0.00  0.00    +0.000 OA
ATOM     10  O   UNL     1      49.144   2.663  17.258  0.00  0.00    +0.000 OA
BRANCH   8  11
ATOM     11  N   UNL     1      46.704   2.853  17.768  0.00  0.00    +0.000 NA
ATOM     12  H   UNL     1      46.570   2.670  18.763  0.00  0.00    +0.000 HD
ATOM     13  H   UNL     1      46.680   2.015  17.187  0.00  0.00    +0.000 HD
ENDBRANCH   8  11
ENDBRANCH   2   8
ENDBRANCH   1   5
BRANCH   1  14
ATOM     14  C   UNL     1      45.628   6.855  12.291  0.00  0.00    +0.000 C 
BRANCH  14  15
ATOM     15  C   UNL     1      45.235   6.581  10.839  0.00  0.00    +0.000 C 
BRANCH  15  16
ATOM     16  C   UNL     1      44.892   5.119  10.675  0.00  0.00    +0.000 A 
ATOM     17  C   UNL     1      44.115   4.462  11.637  0.00  0.00    +0.000 A 
ATOM     18  C   UNL     1      43.698   3.146  11.429  0.00  0.00    +0.000 A 
ATOM     19  C   UNL     1      44.056   2.469  10.260  0.00  0.00    +0.000 A 
ATOM     20  C   UNL     1      44.847   3.105   9.306  0.00  0.00    +0.000 A 
ATOM     21  C   UNL     1      45.252   4.428   9.509  0.00  0.00    +0.000 A 
BRANCH  20  22
ATOM     22  O   UNL     1      45.235   2.537   8.118  0.00  0.00    +0.000 OA
BRANCH  22  23
ATOM     23  C   UNL     1      46.574   2.788   7.635  0.00  0.00    +0.000 C 
ATOM     24  C   UNL     1      46.709   3.291   6.178  0.00  0.00    +0.000 C 
ATOM     25  C   UNL     1      47.776   2.222   5.920  0.00  0.00    +0.000 C 
ATOM     26  C   UNL     1      47.347   1.516   7.211  0.00  0.00    +0.000 C 
ENDBRANCH  22  23
ENDBRANCH  20  22
ENDBRANCH  15  16
ENDBRANCH  14  15
ENDBRANCH   1  14
TORSDOF 8
ENDMDL
MODEL 3
REMARK VINA RESULT:    -6.726      2.429      4.435
REMARK INTER + INTRA:         -10.814
REMARK INTER:                  -9.904
REMARK INTRA:                  -0.910
REMARK UNBOUND:                -1.139
REMARK  Name = 
REMARK  8 active torsions:
REMARK  status: ('A' for Active; 'I' for Inactive)
REMARK    1  A    between atoms: N_1  and  S_2
REMARK    2  A    between atoms: S_2  and  C_5
REMARK    3  A    between atoms: C_8  and  O_9
REMARK    4  A    between atoms: O_9  and  C_10
REMARK    5  A    between atoms: C_10  and  C_11
REMARK    6  A    between atoms: C_11  and  C_12
REMARK    7  A    between atoms: C_16  and  O_17
REMARK    8  A    between atoms: O_17  and  C_18
REMARK                            x       y       z     vdW  Elec       q    Type
REMARK                         _______ _______ _______ _____ _____    ______ ____
ROOT
ATOM      1  O   UNL     1      43.404   3.654  10.661  0.00  0.00    +0.000 OA
ENDROOT
BRANCH   1   5
ATOM      2  C   UNL     1      46.213   2.598   7.770  0.00  0.00    +0.000 A 
ATOM      3  C   UNL     1      45.836   3.935   7.852  0.00  0.00    +0.000 A 
ATOM      4  C   UNL     1      44.898   4.321   8.814  0.00  0.00    +0.000 A 
ATOM      5  C   UNL     1      44.334   3.380   9.687  0.00  0.00    +0.000 A 
ATOM      6  C   UNL     1      44.723   2.040   9.588  0.00  0.00    +0.000 A 
ATOM      7  C   UNL     1      45.656   1.642   8.627  0.00  0.00    +0.000 A 
BRANCH   2   8
ATOM      8  S   UNL     1      47.376   2.085   6.539  0.00  0.00    +0.000 S 
ATOM      9  O   UNL     1      47.072   0.732   6.133  0.00  0.00    +0.000 OA
ATOM     10  O   UNL     1      48.701   2.490   6.940  0.00  0.00    +0.000 OA
BRANCH   8  11
ATOM     11  N   UNL     1      46.960   3.066   5.241  0.00  0.00    +0.000 NA
ATOM     12  H   UNL     1      46.683   3.987   5.585  0.00  0.00    +0.000 HD
ATOM     13  H   UNL     1      46.250   2.609   4.670  0.00  0.00    +0.000 HD
ENDBRANCH   8  11
ENDBRANCH   2   8
ENDBRANCH   1   5
BRANCH   1  14
ATOM     14  C   UNL     1      43.749   4.721  11.549  0.00  0.00    +0.000 C 
BRANCH  14  15
ATOM     15  C   UNL     1      45.042   4.408  12.303  0.00  0.00    +0.000 C 
BRANCH  15  16
ATOM     16  C   UNL     1      45.682   5.697  12.765  0.00  0.00    +0.000 A 
ATOM     17  C   UNL     1      46.975   5.693  13.304  0.00  0.00    +0.000 A 
ATOM     18  C   UNL     1      47.611   6.894  13.620  0.00  0.00    +0.000 A 
ATOM     19  C   UNL     1      46.963   8.113  13.407  0.00  0.00    +0.000 A 
ATOM     20  C   UNL     1      45.669   8.129  12.893  0.00  0.00    +0.000 A 
ATOM     21  C   UNL     1      45.037   6.926  12.563  0.00  0.00    +0.000 A 
BRANCH  20  22
ATOM     22  O   UNL     1      44.954   9.271  12.627  0.00  0.00    +0.000 OA
BRANCH  22  23
ATOM     23  C   UNL     1      44.757   9.660  11.249  0.00  0.00    +0.000 C 
ATOM     24  C   UNL     1      44.885  11.168  10.923  0.00  0.00    +0.000 C 
ATOM     25  C   UNL     1      43.556  11.103  10.162  0.00  0.00    +0.000 C 
ATOM     26  C   UNL     1      43.273   9.746  10.817  0.00  0.00    +0.000 C 
ENDBRANCH  22  23
ENDBRANCH  20  22
ENDBRANCH  15  16
ENDBRANCH  14  15
ENDBRANCH   1  14
TORSDOF 8
ENDMDL
MODEL 4
REMARK VINA RESULT:    -6.600      2.516      3.440
REMARK INTER + INTRA:         -10.633
REMARK INTER:                  -9.578
REMARK INTRA:                  -1.054
REMARK UNBOUND:                -1.139
REMARK  Name = 
REMARK  8 active torsions:
REMARK  status: ('A' for Active; 'I' for Inactive)
REMARK    1  A    between atoms: N_1  and  S_2
REMARK    2  A    between atoms: S_2  and  C_5
REMARK    3  A    between atoms: C_8  and  O_9
REMARK    4  A    between atoms: O_9  and  C_10
REMARK    5  A    between atoms: C_10  and  C_11
REMARK    6  A    between atoms: C_11  and  C_12
REMARK    7  A    between atoms: C_16  and  O_17
REMARK    8  A    between atoms: O_17  and  C_18
REMARK                            x       y       z     vdW  Elec       q    Type
REMARK                         _______ _______ _______ _____ _____    ______ ____
ROOT
ATOM      1  O   UNL     1      43.296   3.589  10.826  0.00  0.00    +0.000 OA
ENDROOT
BRANCH   1   5
ATOM      2  C   UNL     1      46.041   2.720   7.816  0.00  0.00    +0.000 A 
ATOM      3  C   UNL     1      45.585   4.031   7.920  0.00  0.00    +0.000 A 
ATOM      4  C   UNL     1      44.666   4.355   8.923  0.00  0.00    +0.000 A 
ATOM      5  C   UNL     1      44.199   3.378   9.813  0.00  0.00    +0.000 A 
ATOM      6  C   UNL     1      44.666   2.064   9.691  0.00  0.00    +0.000 A 
ATOM      7  C   UNL     1      45.581   1.729   8.689  0.00  0.00    +0.000 A 
BRANCH   2   8
ATOM      8  S   UNL     1      47.180   2.284   6.534  0.00  0.00    +0.000 S 
ATOM      9  O   UNL     1      48.522   2.605   6.962  0.00  0.00    +0.000 OA
ATOM     10  O   UNL     1      46.653   2.718   5.263  0.00  0.00    +0.000 OA
BRANCH   8  11
ATOM     11  N   UNL     1      47.078   0.608   6.535  0.00  0.00    +0.000 NA
ATOM     12  H   UNL     1      46.115   0.326   6.725  0.00  0.00    +0.000 HD
ATOM     13  H   UNL     1      47.759   0.216   7.185  0.00  0.00    +0.000 HD
ENDBRANCH   8  11
ENDBRANCH   2   8
ENDBRANCH   1   5
BRANCH   1  14
ATOM     14  C   UNL     1      43.455   4.822  11.535  0.00  0.00    +0.000 C 
BRANCH  14  15
ATOM     15  C   UNL     1      44.644   4.751  12.495  0.00  0.00    +0.000 C 
BRANCH  15  16
ATOM     16  C   UNL     1      45.475   6.006  12.364  0.00  0.00    +0.000 A 
ATOM     17  C   UNL     1      44.864   7.266  12.382  0.00  0.00    +0.000 A 
ATOM     18  C   UNL     1      45.640   8.426  12.381  0.00  0.00    +0.000 A 
ATOM     19  C   UNL     1      47.034   8.343  12.355  0.00  0.00    +0.000 A 
ATOM     20  C   UNL     1      47.653   7.096  12.314  0.00  0.00    +0.000 A 
ATOM     21  C   UNL     1      46.875   5.934  12.330  0.00  0.00    +0.000 A 
BRANCH  20  22
ATOM     22  O   UNL     1      49.012   6.905  12.309  0.00  0.00    +0.000 OA
BRANCH  22  23
ATOM     23  C   UNL     1      49.866   8.006  11.923  0.00  0.00    +0.000 C 
ATOM     24  C   UNL     1      51.065   7.672  11.004  0.00  0.00    +0.000 C 
ATOM     25  C   UNL     1      51.988   8.454  11.945  0.00  0.00    +0.000 C 
ATOM     26  C   UNL     1      50.883   8.434  13.008  0.00  0.00    +0.000 C 
ENDBRANCH  22  23
ENDBRANCH  20  22
ENDBRANCH  15  16
ENDBRANCH  14  15
ENDBRANCH   1  14
TORSDOF 8
ENDMDL
MODEL 5
REMARK VINA RESULT:    -6.404      4.620      9.138
REMARK INTER + INTRA:         -10.351
REMARK INTER:                  -9.698
REMARK INTRA:                  -0.653
REMARK UNBOUND:                -1.139
REMARK  Name = 
REMARK  8 active torsions:
REMARK  status: ('A' for Active; 'I' for Inactive)
REMARK    1  A    between atoms: N_1  and  S_2
REMARK    2  A    between atoms: S_2  and  C_5
REMARK    3  A    between atoms: C_8  and  O_9
REMARK    4  A    between atoms: O_9  and  C_10
REMARK    5  A    between atoms: C_10  and  C_11
REMARK    6  A    between atoms: C_11  and  C_12
REMARK    7  A    between atoms: C_16  and  O_17
REMARK    8  A    between atoms: O_17  and  C_18
REMARK                            x       y       z     vdW  Elec       q    Type
REMARK                         _______ _______ _______ _____ _____    ______ ____
ROOT
ATOM      1  O   UNL     1      48.211   5.685  14.331  0.00  0.00    +0.000 OA
ENDROOT
BRANCH   1   5
ATOM      2  C   UNL     1      48.436   5.416  18.483  0.00  0.00    +0.000 A 
ATOM      3  C   UNL     1      49.277   6.322  17.844  0.00  0.00    +0.000 A 
ATOM      4  C   UNL     1      49.223   6.438  16.452  0.00  0.00    +0.000 A 
ATOM      5  C   UNL     1      48.339   5.652  15.699  0.00  0.00    +0.000 A 
ATOM      6  C   UNL     1      47.503   4.744  16.358  0.00  0.00    +0.000 A 
ATOM      7  C   UNL     1      47.553   4.617  17.748  0.00  0.00    +0.000 A 
BRANCH   2   8
ATOM      8  S   UNL     1      48.512   5.233  20.241  0.00  0.00    +0.000 S 
ATOM      9  O   UNL     1      47.331   5.819  20.831  0.00  0.00    +0.000 OA
ATOM     10  O   UNL     1      49.842   5.558  20.695  0.00  0.00    +0.000 OA
BRANCH   8  11
ATOM     11  N   UNL     1      48.350   3.572  20.423  0.00  0.00    +0.000 NA
ATOM     12  H   UNL     1      48.111   3.356  21.392  0.00  0.00    +0.000 HD
ATOM     13  H   UNL     1      49.190   3.099  20.090  0.00  0.00    +0.000 HD
ENDBRANCH   8  11
ENDBRANCH   2   8
ENDBRANCH   1   5
BRANCH   1  14
ATOM     14  C   UNL     1      46.982   5.157  13.823  0.00  0.00    +0.000 C 
BRANCH  14  15
ATOM     15  C   UNL     1      46.289   6.169  12.910  0.00  0.00    +0.000 C 
BRANCH  15  16
ATOM     16  C   UNL     1      45.424   5.437  11.910  0.00  0.00    +0.000 A 
ATOM     17  C   UNL     1      44.161   4.960  12.281  0.00  0.00    +0.000 A 
ATOM     18  C   UNL     1      43.313   4.391  11.329  0.00  0.00    +0.000 A 
ATOM     19  C   UNL     1      43.720   4.286   9.996  0.00  0.00    +0.000 A 
ATOM     20  C   UNL     1      44.982   4.737   9.619  0.00  0.00    +0.000 A 
ATOM     21  C   UNL     1      45.825   5.320  10.571  0.00  0.00    +0.000 A 
BRANCH  20  22
ATOM     22  O   UNL     1      45.467   4.700   8.335  0.00  0.00    +0.000 OA
BRANCH  22  23
ATOM     23  C   UNL     1      45.495   3.433   7.641  0.00  0.00    +0.000 C 
ATOM     24  C   UNL     1      45.899   2.190   8.470  0.00  0.00    +0.000 C 
ATOM     25  C   UNL     1      46.896   1.798   7.375  0.00  0.00    +0.000 C 
ATOM     26  C   UNL     1      46.762   3.206   6.781  0.00  0.00    +0.000 C 
ENDBRANCH  22  23
ENDBRANCH  20  22
ENDBRANCH  15  16
ENDBRANCH  14  15
ENDBRANCH   1  14
TORSDOF 8
ENDMDL
MODEL 6
REMARK VINA RESULT:    -6.404      2.066      4.034
REMARK INTER + INTRA:         -10.350
REMARK INTER:                  -9.494
REMARK INTRA:                  -0.856
REMARK UNBOUND:                -1.139
REMARK  Name = 
REMARK  8 active torsions:
REMARK  status: ('A' for Active; 'I' for Inactive)
REMARK    1  A    between atoms: N_1  and  S_2
REMARK    2  A    between atoms: S_2  and  C_5
REMARK    3  A    between atoms: C_8  and  O_9
REMARK    4  A    between atoms: O_9  and  C_10
REMARK    5  A    between atoms: C_10  and  C_11
REMARK    6  A    between atoms: C_11  and  C_12
REMARK    7  A    between atoms: C_16  and  O_17
REMARK    8  A    between atoms: O_17  and  C_18
REMARK                            x       y       z     vdW  Elec       q    Type
REMARK                         _______ _______ _______ _____ _____    ______ ____
ROOT
ATOM      1  O   UNL     1      43.214   3.936  10.798  0.00  0.00    +0.000 OA
ENDROOT
BRANCH   1   5
ATOM      2  C   UNL     1      45.931   2.799   7.852  0.00  0.00    +0.000 A 
ATOM      3  C   UNL     1      45.311   1.793   8.586  0.00  0.00    +0.000 A 
ATOM      4  C   UNL     1      44.391   2.143   9.580  0.00  0.00    +0.000 A 
ATOM      5  C   UNL     1      44.095   3.487   9.844  0.00  0.00    +0.000 A 
ATOM      6  C   UNL     1      44.731   4.485   9.098  0.00  0.00    +0.000 A 
ATOM      7  C   UNL     1      45.655   4.147   8.106  0.00  0.00    +0.000 A 
BRANCH   2   8
ATOM      8  S   UNL     1      47.121   2.377   6.611  0.00  0.00    +0.000 S 
ATOM      9  O   UNL     1      48.421   2.860   7.016  0.00  0.00    +0.000 OA
ATOM     10  O   UNL     1      46.567   2.656   5.309  0.00  0.00    +0.000 OA
BRANCH   8  11
ATOM     11  N   UNL     1      47.181   0.705   6.745  0.00  0.00    +0.000 NA
ATOM     12  H   UNL     1      46.231   0.330   6.764  0.00  0.00    +0.000 HD
ATOM     13  H   UNL     1      47.746   0.438   7.551  0.00  0.00    +0.000 HD
ENDBRANCH   8  11
ENDBRANCH   2   8
ENDBRANCH   1   5
BRANCH   1  14
ATOM     14  C   UNL     1      43.808   4.661  11.880  0.00  0.00    +0.000 C 
BRANCH  14  15
ATOM     15  C   UNL     1      45.057   3.946  12.397  0.00  0.00    +0.000 C 
BRANCH  15  16
ATOM     16  C   UNL     1      46.025   4.962  12.958  0.00  0.00    +0.000 A 
ATOM     17  C   UNL     1      46.815   4.648  14.070  0.00  0.00    +0.000 A 
ATOM     18  C   UNL     1      47.793   5.540  14.515  0.00  0.00    +0.000 A 
ATOM     19  C   UNL     1      47.989   6.757  13.858  0.00  0.00    +0.000 A 
ATOM     20  C   UNL     1      47.194   7.090  12.764  0.00  0.00    +0.000 A 
ATOM     21  C   UNL     1      46.225   6.190  12.310  0.00  0.00    +0.000 A 
BRANCH  20  22
ATOM     22  O   UNL     1      47.320   8.248  12.038  0.00  0.00    +0.000 OA
BRANCH  22  23
ATOM     23  C   UNL     1      46.573   9.413  12.455  0.00  0.00    +0.000 C 
ATOM     24  C   UNL     1      45.119   9.534  11.938  0.00  0.00    +0.000 C 
ATOM     25  C   UNL     1      45.406  10.977  11.507  0.00  0.00    +0.000 C 
ATOM     26  C   UNL     1      46.906  10.701  11.665  0.00  0.00    +0.000 C 
ENDBRANCH  22  23
ENDBRANCH  20  22
ENDBRANCH  15  16
ENDBRANCH  14  15
ENDBRANCH   1  14
TORSDOF 8
ENDMDL
MODEL 7
REMARK VINA RESULT:    -6.205      3.765      5.673
REMARK INTER + INTRA:         -10.064
REMARK INTER:                  -8.863
REMARK INTRA:                  -1.201
REMARK UNBOUND:                -1.139
REMARK  Name = 
REMARK  8 active torsions:
REMARK  status: ('A' for Active; 'I' for Inactive)
REMARK    1  A    between atoms: N_1  and  S_2
REMARK    2  A    between atoms: S_2  and  C_5
REMARK    3  A    between atoms: C_8  and  O_9
REMARK    4  A    between atoms: O_9  and  C_10
REMARK    5  A    between atoms: C_10  and  C_11
REMARK    6  A    between atoms: C_11  and  C_12
REMARK    7  A    between atoms: C_16  and  O_17
REMARK    8  A    between atoms: O_17  and  C_18
REMARK                            x       y       z     vdW  Elec       q    Type
REMARK                         _______ _______ _______ _____ _____    ______ ____
ROOT
ATOM      1  O   UNL     1      48.902   6.266  13.008  0.00  0.00    +0.000 OA
ENDROOT
BRANCH   1   5
ATOM      2  C   UNL     1      44.922   5.308  12.238  0.00  0.00    +0.000 A 
ATOM      3  C   UNL     1      45.546   4.675  13.308  0.00  0.00    +0.000 A 
ATOM      4  C   UNL     1      46.881   4.978  13.594  0.00  0.00    +0.000 A 
ATOM      5  C   UNL     1      47.591   5.903  12.816  0.00  0.00    +0.000 A 
ATOM      6  C   UNL     1      46.948   6.527  11.741  0.00  0.00    +0.000 A 
ATOM      7  C   UNL     1      45.615   6.227  11.444  0.00  0.00    +0.000 A 
BRANCH   2   8
ATOM      8  S   UNL     1      43.242   4.914  11.841  0.00  0.00    +0.000 S 
ATOM      9  O   UNL     1      42.434   5.028  13.033  0.00  0.00    +0.000 OA
ATOM     10  O   UNL     1      43.216   3.742  11.002  0.00  0.00    +0.000 OA
BRANCH   8  11
ATOM     11  N   UNL     1      42.809   6.203  10.857  0.00  0.00    +0.000 NA
ATOM     12  H   UNL     1      43.274   7.052  11.182  0.00  0.00    +0.000 HD
ATOM     13  H   UNL     1      41.793   6.282  10.810  0.00  0.00    +0.000 HD
ENDBRANCH   8  11
ENDBRANCH   2   8
ENDBRANCH   1   5
BRANCH   1  14
ATOM     14  C   UNL     1      49.117   7.659  13.255  0.00  0.00    +0.000 C 
BRANCH  14  15
ATOM     15  C   UNL     1      48.793   8.013  14.707  0.00  0.00    +0.000 C 
BRANCH  15  16
ATOM     16  C   UNL     1      49.596   7.130  15.634  0.00  0.00    +0.000 A 
ATOM     17  C   UNL     1      50.995   7.171  15.615  0.00  0.00    +0.000 A 
ATOM     18  C   UNL     1      51.735   6.446  16.551  0.00  0.00    +0.000 A 
ATOM     19  C   UNL     1      51.087   5.668  17.513  0.00  0.00    +0.000 A 
ATOM     20  C   UNL     1      49.696   5.602  17.529  0.00  0.00    +0.000 A 
ATOM     21  C   UNL     1      48.955   6.340  16.600  0.00  0.00    +0.000 A 
BRANCH  20  22
ATOM     22  O   UNL     1      48.964   4.886  18.443  0.00  0.00    +0.000 OA
BRANCH  22  23
ATOM     23  C   UNL     1      48.718   3.484  18.190  0.00  0.00    +0.000 C 
ATOM     24  C   UNL     1      49.722   2.754  17.266  0.00  0.00    +0.000 C 
ATOM     25  C   UNL     1      48.549   2.189  16.458  0.00  0.00    +0.000 C 
ATOM     26  C   UNL     1      47.624   3.211  17.129  0.00  0.00    +0.000 C 
ENDBRANCH  22  23
ENDBRANCH  20  22
ENDBRANCH  15  16
ENDBRANCH  14  15
ENDBRANCH   1  14
TORSDOF 8
ENDMDL
MODEL 8
REMARK VINA RESULT:    -6.106      4.004      5.773
REMARK INTER + INTRA:          -9.923
REMARK INTER:                  -8.501
REMARK INTRA:                  -1.421
REMARK UNBOUND:                -1.139
REMARK  Name = 
REMARK  8 active torsions:
REMARK  status: ('A' for Active; 'I' for Inactive)
REMARK    1  A    between atoms: N_1  and  S_2
REMARK    2  A    between atoms: S_2  and  C_5
REMARK    3  A    between atoms: C_8  and  O_9
REMARK    4  A    between atoms: O_9  and  C_10
REMARK    5  A    between atoms: C_10  and  C_11
REMARK    6  A    between atoms: C_11  and  C_12
REMARK    7  A    between atoms: C_16  and  O_17
REMARK    8  A    between atoms: O_17  and  C_18
REMARK                            x       y       z     vdW  Elec       q    Type
REMARK                         _______ _______ _______ _____ _____    ______ ____
ROOT
ATOM      1  O   UNL     1      48.992   6.808  12.690  0.00  0.00    +0.000 OA
ENDROOT
BRANCH   1   5
ATOM      2  C   UNL     1      45.199   5.091  12.541  0.00  0.00    +0.000 A 
ATOM      3  C   UNL     1      46.038   4.724  13.590  0.00  0.00    +0.000 A 
ATOM      4  C   UNL     1      47.316   5.286  13.669  0.00  0.00    +0.000 A 
ATOM      5  C   UNL     1      47.758   6.204  12.707  0.00  0.00    +0.000 A 
ATOM      6  C   UNL     1      46.903   6.559  11.658  0.00  0.00    +0.000 A 
ATOM      7  C   UNL     1      45.626   6.000  11.567  0.00  0.00    +0.000 A 
BRANCH   2   8
ATOM      8  S   UNL     1      43.590   4.367  12.407  0.00  0.00    +0.000 S 
ATOM      9  O   UNL     1      43.593   3.079  13.060  0.00  0.00    +0.000 OA
ATOM     10  O   UNL     1      43.099   4.548  11.063  0.00  0.00    +0.000 OA
BRANCH   8  11
ATOM     11  N   UNL     1      42.673   5.382  13.380  0.00  0.00    +0.000 NA
ATOM     12  H   UNL     1      42.573   6.291  12.926  0.00  0.00    +0.000 HD
ATOM     13  H   UNL     1      43.076   5.430  14.315  0.00  0.00    +0.000 HD
ENDBRANCH   8  11
ENDBRANCH   2   8
ENDBRANCH   1   5
BRANCH   1  14
ATOM     14  C   UNL     1      48.989   8.207  12.993  0.00  0.00    +0.000 C 
BRANCH  14  15
ATOM     15  C   UNL     1      50.051   8.542  14.040  0.00  0.00    +0.000 C 
BRANCH  15  16
ATOM     16  C   UNL     1      49.440   8.471  15.420  0.00  0.00    +0.000 A 
ATOM     17  C   UNL     1      48.758   9.573  15.951  0.00  0.00    +0.000 A 
ATOM     18  C   UNL     1      48.092   9.469  17.174  0.00  0.00    +0.000 A 
ATOM     19  C   UNL     1      48.105   8.266  17.884  0.00  0.00    +0.000 A 
ATOM     20  C   UNL     1      48.798   7.170  17.377  0.00  0.00    +0.000 A 
ATOM     21  C   UNL     1      49.453   7.270  16.145  0.00  0.00    +0.000 A 
BRANCH  20  22
ATOM     22  O   UNL     1      48.855   5.940  17.984  0.00  0.00    +0.000 OA
BRANCH  22  23
ATOM     23  C   UNL     1      48.576   4.762  17.193  0.00  0.00    +0.000 C 
ATOM     24  C   UNL     1      47.123   4.230  17.220  0.00  0.00    +0.000 C 
ATOM     25  C   UNL     1      47.659   2.821  17.501  0.00  0.00    +0.000 C 
ATOM     26  C   UNL     1      49.021   3.434  17.849  0.00  0.00    +0.000 C 
ENDBRANCH  22  23
ENDBRANCH  20  22
ENDBRANCH  15  16
ENDBRANCH  14  15
ENDBRANCH   1  14
TORSDOF 8
ENDMDL
MODEL 9
REMARK VINA RESULT:    -5.880      3.978      7.769
REMARK INTER + INTRA:          -9.597
REMARK INTER:                  -8.890
REMARK INTRA:                  -0.707
REMARK UNBOUND:                -1.139
REMARK  Name = 
REMARK  8 active torsions:
REMARK  status: ('A' for Active; 'I' for Inactive)
REMARK    1  A    between atoms: N_1  and  S_2
REMARK    2  A    between atoms: S_2  and  C_5
REMARK    3  A    between atoms: C_8  and  O_9
REMARK    4  A    between atoms: O_9  and  C_10
REMARK    5  A    between atoms: C_10  and  C_11
REMARK    6  A    between atoms: C_11  and  C_12
REMARK    7  A    between atoms: C_16  and  O_17
REMARK    8  A    between atoms: O_17  and  C_18
REMARK                            x       y       z     vdW  Elec       q    Type
REMARK                         _______ _______ _______ _____ _____    ______ ____
ROOT
ATOM      1  O   UNL     1      45.915   7.543  13.229  0.00  0.00    +0.000 OA
ENDROOT
BRANCH   1   5
ATOM      2  C   UNL     1      49.778   8.718  12.203  0.00  0.00    +0.000 A 
ATOM      3  C   UNL     1      49.463   7.366  12.105  0.00  0.00    +0.000 A 
ATOM      4  C   UNL     1      48.173   6.941  12.439  0.00  0.00    +0.000 A 
ATOM      5  C   UNL     1      47.204   7.856  12.873  0.00  0.00    +0.000 A 
ATOM      6  C   UNL     1      47.540   9.211  12.968  0.00  0.00    +0.000 A 
ATOM      7  C   UNL     1      48.827   9.646  12.642  0.00  0.00    +0.000 A 
BRANCH   2   8
ATOM      8  S   UNL     1      51.413   9.271  11.813  0.00  0.00    +0.000 S 
ATOM      9  O   UNL     1      51.953   9.990  12.944  0.00  0.00    +0.000 OA
ATOM     10  O   UNL     1      51.425   9.815  10.478  0.00  0.00    +0.000 OA
BRANCH   8  11
ATOM     11  N   UNL     1      52.258   7.822  11.735  0.00  0.00    +0.000 NA
ATOM     12  H   UNL     1      51.995   7.319  10.886  0.00  0.00    +0.000 HD
ATOM     13  H   UNL     1      52.117   7.287  12.591  0.00  0.00    +0.000 HD
ENDBRANCH   8  11
ENDBRANCH   2   8
ENDBRANCH   1   5
BRANCH   1  14
ATOM     14  C   UNL     1      45.440   6.283  12.746  0.00  0.00    +0.000 C 
BRANCH  14  15
ATOM     15  C   UNL     1      44.788   6.435  11.371  0.00  0.00    +0.000 C 
BRANCH  15  16
ATOM     16  C   UNL     1      44.756   5.094  10.676  0.00  0.00    +0.000 A 
ATOM     17  C   UNL     1      44.243   3.968  11.332  0.00  0.00    +0.000 A 
ATOM     18  C   UNL     1      44.103   2.757  10.650  0.00  0.00    +0.000 A 
ATOM     19  C   UNL     1      44.478   2.656   9.308  0.00  0.00    +0.000 A 
ATOM     20  C   UNL     1      45.010   3.762   8.652  0.00  0.00    +0.000 A 
ATOM     21  C   UNL     1      45.137   4.978   9.331  0.00  0.00    +0.000 A 
BRANCH  20  22
ATOM     22  O   UNL     1      45.388   3.773   7.332  0.00  0.00    +0.000 OA
BRANCH  22  23
ATOM     23  C   UNL     1      46.757   3.448   7.001  0.00  0.00    +0.000 C 
ATOM     24  C   UNL     1      47.056   3.108   5.521  0.00  0.00    +0.000 C 
ATOM     25  C   UNL     1      47.807   1.851   5.975  0.00  0.00    +0.000 C 
ATOM     26  C   UNL     1      47.175   2.003   7.363  0.00  0.00    +0.000 C 
ENDBRANCH  22  23
ENDBRANCH  20  22
ENDBRANCH  15  16
ENDBRANCH  14  15
ENDBRANCH   1  14
TORSDOF 8
ENDMDL
