MODEL 1
REMARK VINA RESULT:    -7.244      0.000      0.000
REMARK INTER + INTRA:         -12.321
REMARK INTER:                 -10.632
REMARK INTRA:                  -1.689
REMARK UNBOUND:                -1.689
REMARK  Name = 
REMARK  9 active torsions:
REMARK  status: ('A' for Active; 'I' for Inactive)
REMARK    1  A    between atoms: C_1  and  O_2
REMARK    2  A    between atoms: O_2  and  C_3
REMARK    3  A    between atoms: C_8  and  C_9
REMARK    4  A    between atoms: C_9  and  C_11
REMARK    5  A    between atoms: C_11  and  C_12
REMARK    6  A    between atoms: C_12  and  C_13
REMARK    7  A    between atoms: C_16  and  C_17
REMARK    8  A    between atoms: C_17  and  N_18
REMARK    9  A    between atoms: C_19  and  C_21
REMARK                            x       y       z     vdW  Elec       q    Type
REMARK                         _______ _______ _______ _____ _____    ______ ____
ROOT
ATOM      1  C   UNL     1      47.424   5.714  13.672  0.00  0.00    +0.000 A 
ATOM      2  C   UNL     1      46.960   4.391  13.643  0.00  0.00    +0.000 A 
ATOM      3  C   UNL     1      47.047   3.574  14.779  0.00  0.00    +0.000 A 
ATOM      4  C   UNL     1      47.596   4.065  15.968  0.00  0.00    +0.000 A 
ATOM      5  C   UNL     1      48.103   5.368  15.987  0.00  0.00    +0.000 A 
ATOM      6  C   UNL     1      48.020   6.179  14.853  0.00  0.00    +0.000 A 
ENDROOT
BRANCH   1   7
ATOM      7  C   UNL     1      47.319   6.573  12.426  0.00  0.00    +0.000 C 
BRANCH   7   8
ATOM      8  C   UNL     1      46.203   7.618  12.498  0.00  0.00    +0.000 C 
BRANCH   8   9
ATOM      9  C   UNL     1      44.967   7.250  11.710  0.00  0.00    +0.000 C 
ATOM     10  O   UNL     1      44.346   8.094  11.064  0.00  0.00    +0.000 OA
BRANCH   9  16
ATOM     11  C   UNL     1      44.708   4.900  10.651  0.00  0.00    +0.000 A 
ATOM     12  C   UNL     1      44.140   3.619  10.735  0.00  0.00    +0.000 A 
ATOM     13  C   UNL     1      43.386   3.240  11.848  0.00  0.00    +0.000 A 
ATOM     14  C   UNL     1      43.206   4.127  12.900  0.00  0.00    +0.000 A 
ATOM     15  C   UNL     1      43.753   5.408  12.825  0.00  0.00    +0.000 A 
ATOM     16  C   UNL     1      44.492   5.819  11.701  0.00  0.00    +0.000 A 
BRANCH  11  18
ATOM     17  C   UNL     1      45.572   4.419   8.473  0.00  0.00    +0.000 C 
ATOM     18  O   UNL     1      45.525   5.264   9.615  0.00  0.00    +0.000 OA
ENDBRANCH  11  18
ENDBRANCH   9  16
ENDBRANCH   8   9
ENDBRANCH   7   8
ENDBRANCH   1   7
BRANCH   4  19
ATOM     19  C   UNL     1      47.698   3.209  17.202  0.00  0.00    +0.000 C 
BRANCH  19  20
ATOM     20  N   UNL     1      49.072   3.050  17.604  0.00  0.00    +0.000 N 
ATOM     21  C   UNL     1      49.928   2.230  16.917  0.00  0.00    +0.000 C 
ATOM     22  O   UNL     1      49.585   1.629  15.902  0.00  0.00    +0.000 OA
ATOM     23  H   UNL     1      49.303   3.325  18.554  0.00  0.00    +0.000 HD
BRANCH  21  24
ATOM     24  C   UNL     1      51.303   2.155  17.424  0.00  0.00    +0.000 A 
ATOM     25  C   UNL     1      51.899   0.919  17.629  0.00  0.00    +0.000 A 
ATOM     26  S   UNL     1      53.511   1.018  18.179  0.00  0.00    +0.000 S 
ATOM     27  C   UNL     1      53.454   2.718  18.205  0.00  0.00    +0.000 A 
ATOM     28  N   UNL     1      54.525   3.450  18.618  0.00  0.00    +0.000 NA
ATOM     29  C   UNL     1      54.335   4.725  18.608  0.00  0.00    +0.000 A 
ATOM     30  N   UNL     1      53.171   5.340  18.223  0.00  0.00    +0.000 N 
ATOM     31  C   UNL     1      52.074   4.645  17.783  0.00  0.00    +0.000 A 
ATOM     32  O   UNL     1      51.058   5.225  17.412  0.00  0.00    +0.000 OA
ATOM     33  C   UNL     1      52.231   3.203  17.781  0.00  0.00    +0.000 A 
ATOM     34  H   UNL     1      53.091   6.346  18.228  0.00  0.00    +0.000 HD
ENDBRANCH  21  24
ENDBRANCH  19  20
ENDBRANCH   4  19
TORSDOF 8
ENDMDL
MODEL 2
REMARK VINA RESULT:    -7.231      1.684      3.237
REMARK INTER + INTRA:         -12.302
REMARK INTER:                 -11.032
REMARK INTRA:                  -1.271
REMARK UNBOUND:                -1.689
REMARK  Name = 
REMARK  9 active torsions:
REMARK  status: ('A' for Active; 'I' for Inactive)
REMARK    1  A    between atoms: C_1  and  O_2
REMARK    2  A    between atoms: O_2  and  C_3
REMARK    3  A    between atoms: C_8  and  C_9
REMARK    4  A    between atoms: C_9  and  C_11
REMARK    5  A    between atoms: C_11  and  C_12
REMARK    6  A    between atoms: C_12  and  C_13
REMARK    7  A    between atoms: C_16  and  C_17
REMARK    8  A    between atoms: C_17  and  N_18
REMARK    9  A    between atoms: C_19  and  C_21
REMARK                            x       y       z     vdW  Elec       q    Type
REMARK                         _______ _______ _______ _____ _____    ______ ____
ROOT
ATOM      1  C   UNL     1      47.120   5.549  13.614  0.00  0.00    +0.000 A 
ATOM      2  C   UNL     1      47.179   4.999  14.902  0.00  0.00    +0.000 A 
ATOM      3  C   UNL     1      48.107   5.470  15.842  0.00  0.00    +0.000 A 
ATOM      4  C   UNL     1      48.991   6.504  15.513  0.00  0.00    +0.000 A 
ATOM      5  C   UNL     1      48.965   7.022  14.215  0.00  0.00    +0.000 A 
ATOM      6  C   UNL     1      48.045   6.548  13.279  0.00  0.00    +0.000 A 
ENDROOT
BRANCH   1   7
ATOM      7  C   UNL     1      46.108   5.017  12.616  0.00  0.00    +0.000 C 
BRANCH   7   8
ATOM      8  C   UNL     1      45.193   6.100  12.040  0.00  0.00    +0.000 C 
BRANCH   8   9
ATOM      9  C   UNL     1      44.171   5.580  11.055  0.00  0.00    +0.000 C 
ATOM     10  O   UNL     1      43.024   6.026  11.030  0.00  0.00    +0.000 OA
BRANCH   9  16
ATOM     11  C   UNL     1      44.131   3.162  10.127  0.00  0.00    +0.000 A 
ATOM     12  C   UNL     1      44.640   2.242   9.198  0.00  0.00    +0.000 A 
ATOM     13  C   UNL     1      45.550   2.642   8.216  0.00  0.00    +0.000 A 
ATOM     14  C   UNL     1      45.948   3.969   8.138  0.00  0.00    +0.000 A 
ATOM     15  C   UNL     1      45.461   4.893   9.062  0.00  0.00    +0.000 A 
ATOM     16  C   UNL     1      44.566   4.504  10.075  0.00  0.00    +0.000 A 
BRANCH  11  18
ATOM     17  C   UNL     1      43.591   2.475  12.354  0.00  0.00    +0.000 C 
ATOM     18  O   UNL     1      43.171   2.815  11.039  0.00  0.00    +0.000 OA
ENDBRANCH  11  18
ENDBRANCH   9  16
ENDBRANCH   8   9
ENDBRANCH   7   8
ENDBRANCH   1   7
BRANCH   4  19
ATOM     19  C   UNL     1      49.994   7.029  16.505  0.00  0.00    +0.000 C 
BRANCH  19  20
ATOM     20  N   UNL     1      50.921   5.998  16.893  0.00  0.00    +0.000 N 
ATOM     21  C   UNL     1      51.044   5.600  18.199  0.00  0.00    +0.000 C 
ATOM     22  O   UNL     1      50.343   6.065  19.093  0.00  0.00    +0.000 OA
ATOM     23  H   UNL     1      51.666   5.786  16.237  0.00  0.00    +0.000 HD
BRANCH  21  24
ATOM     24  C   UNL     1      52.021   4.538  18.464  0.00  0.00    +0.000 A 
ATOM     25  C   UNL     1      53.188   4.828  19.158  0.00  0.00    +0.000 A 
ATOM     26  S   UNL     1      54.187   3.470  19.415  0.00  0.00    +0.000 S 
ATOM     27  C   UNL     1      53.117   2.455  18.570  0.00  0.00    +0.000 A 
ATOM     28  N   UNL     1      53.396   1.134  18.391  0.00  0.00    +0.000 NA
ATOM     29  C   UNL     1      52.509   0.489  17.713  0.00  0.00    +0.000 A 
ATOM     30  N   UNL     1      51.365   1.041  17.193  0.00  0.00    +0.000 N 
ATOM     31  C   UNL     1      51.034   2.361  17.364  0.00  0.00    +0.000 A 
ATOM     32  O   UNL     1      49.987   2.819  16.918  0.00  0.00    +0.000 OA
ATOM     33  C   UNL     1      52.003   3.137  18.115  0.00  0.00    +0.000 A 
ATOM     34  H   UNL     1      50.705   0.477  16.680  0.00  0.00    +0.000 HD
ENDBRANCH  21  24
ENDBRANCH  19  20
ENDBRANCH   4  19
TORSDOF 8
ENDMDL
MODEL 3
REMARK VINA RESULT:    -7.172      3.504      5.373
REMARK INTER + INTRA:         -12.216
REMARK INTER:                 -11.463
REMARK INTRA:                  -0.753
REMARK UNBOUND:                -1.689
REMARK  Name = 
REMARK  9 active torsions:
REMARK  status: ('A' for Active; 'I' for Inactive)
REMARK    1  A    between atoms: C_1  and  O_2
REMARK    2  A    between atoms: O_2  and  C_3
REMARK    3  A    between atoms: C_8  and  C_9
REMARK    4  A    between atoms: C_9  and  C_11
REMARK    5  A    between atoms: C_11  and  C_12
REMARK    6  A    between atoms: C_12  and  C_13
REMARK    7  A    between atoms: C_16  and  C_17
REMARK    8  A    between atoms: C_17  and  N_18
REMARK    9  A    between atoms: C_19  and  C_21
REMARK                            x       y       z     vdW  Elec       q    Type
REMARK                         _______ _______ _______ _____ _____    ______ ____
ROOT
ATOM      1  C   UNL     1      45.332   4.742  12.008  0.00  0.00    +0.000 A 
ATOM      2  C   UNL     1      45.911   4.255  13.188  0.00  0.00    +0.000 A 
ATOM      3  C   UNL     1      46.942   4.959  13.826  0.00  0.00    +0.000 A 
ATOM      4  C   UNL     1      47.413   6.166  13.297  0.00  0.00    +0.000 A 
ATOM      5  C   UNL     1      46.870   6.630  12.096  0.00  0.00    +0.000 A 
ATOM      6  C   UNL     1      45.846   5.925  11.459  0.00  0.00    +0.000 A 
ENDROOT
BRANCH   1   7
ATOM      7  C   UNL     1      44.219   3.957  11.339  0.00  0.00    +0.000 C 
BRANCH   7   8
ATOM      8  C   UNL     1      44.282   3.994   9.810  0.00  0.00    +0.000 C 
BRANCH   8   9
ATOM      9  C   UNL     1      44.685   2.680   9.180  0.00  0.00    +0.000 C 
ATOM     10  O   UNL     1      44.133   1.626   9.493  0.00  0.00    +0.000 OA
BRANCH   9  16
ATOM     11  C   UNL     1      46.528   1.523   7.775  0.00  0.00    +0.000 A 
ATOM     12  C   UNL     1      47.570   1.662   6.845  0.00  0.00    +0.000 A 
ATOM     13  C   UNL     1      47.854   2.899   6.263  0.00  0.00    +0.000 A 
ATOM     14  C   UNL     1      47.089   4.010   6.587  0.00  0.00    +0.000 A 
ATOM     15  C   UNL     1      46.058   3.892   7.520  0.00  0.00    +0.000 A 
ATOM     16  C   UNL     1      45.774   2.661   8.138  0.00  0.00    +0.000 A 
BRANCH  11  18
ATOM     17  C   UNL     1      46.678  -0.862   7.655  0.00  0.00    +0.000 C 
ATOM     18  O   UNL     1      46.173   0.306   8.290  0.00  0.00    +0.000 OA
ENDBRANCH  11  18
ENDBRANCH   9  16
ENDBRANCH   8   9
ENDBRANCH   7   8
ENDBRANCH   1   7
BRANCH   4  19
ATOM     19  C   UNL     1      48.517   6.942  13.964  0.00  0.00    +0.000 C 
BRANCH  19  20
ATOM     20  N   UNL     1      48.253   7.104  15.370  0.00  0.00    +0.000 N 
ATOM     21  C   UNL     1      49.126   6.643  16.321  0.00  0.00    +0.000 C 
ATOM     22  O   UNL     1      50.193   6.113  16.026  0.00  0.00    +0.000 OA
ATOM     23  H   UNL     1      47.292   7.303  15.633  0.00  0.00    +0.000 HD
BRANCH  21  24
ATOM     24  C   UNL     1      48.744   6.873  17.719  0.00  0.00    +0.000 A 
ATOM     25  C   UNL     1      48.426   8.154  18.148  0.00  0.00    +0.000 A 
ATOM     26  S   UNL     1      47.964   8.231  19.788  0.00  0.00    +0.000 S 
ATOM     27  C   UNL     1      48.217   6.562  19.994  0.00  0.00    +0.000 A 
ATOM     28  N   UNL     1      48.026   5.968  21.205  0.00  0.00    +0.000 NA
ATOM     29  C   UNL     1      48.276   4.703  21.222  0.00  0.00    +0.000 A 
ATOM     30  N   UNL     1      48.701   3.973  20.141  0.00  0.00    +0.000 N 
ATOM     31  C   UNL     1      48.888   4.525  18.899  0.00  0.00    +0.000 A 
ATOM     32  O   UNL     1      49.235   3.841  17.942  0.00  0.00    +0.000 OA
ATOM     33  C   UNL     1      48.628   5.951  18.824  0.00  0.00    +0.000 A 
ATOM     34  H   UNL     1      48.868   2.981  20.219  0.00  0.00    +0.000 HD
ENDBRANCH  21  24
ENDBRANCH  19  20
ENDBRANCH   4  19
TORSDOF 8
ENDMDL
MODEL 4
REMARK VINA RESULT:    -7.168      3.951      8.846
REMARK INTER + INTRA:         -12.209
REMARK INTER:                  -9.993
REMARK INTRA:                  -2.216
REMARK UNBOUND:                -1.689
REMARK  Name = 
REMARK  9 active torsions:
REMARK  status: ('A' for Active; 'I' for Inactive)
REMARK    1  A    between atoms: C_1  and  O_2
REMARK    2  A    between atoms: O_2  and  C_3
REMARK    3  A    between atoms: C_8  and  C_9
REMARK    4  A    between atoms: C_9  and  C_11
REMARK    5  A    between atoms: C_11  and  C_12
REMARK    6  A    between atoms: C_12  and  C_13
REMARK    7  A    between atoms: C_16  and  C_17
REMARK    8  A    between atoms: C_17  and  N_18
REMARK    9  A    between atoms: C_19  and  C_21
REMARK                            x       y       z     vdW  Elec       q    Type
REMARK                         _______ _______ _______ _____ _____    ______ ____
ROOT
ATOM      1  C   UNL     1      48.987   7.904  16.194  0.00  0.00    +0.000 A 
ATOM      2  C   UNL     1      49.109   6.717  15.459  0.00  0.00    +0.000 A 
ATOM      3  C   UNL     1      48.677   6.650  14.126  0.00  0.00    +0.000 A 
ATOM      4  C   UNL     1      48.118   7.771  13.502  0.00  0.00    +0.000 A 
ATOM      5  C   UNL     1      47.952   8.942  14.248  0.00  0.00    +0.000 A 
ATOM      6  C   UNL     1      48.377   9.005  15.576  0.00  0.00    +0.000 A 
ENDROOT
BRANCH   1   7
ATOM      7  C   UNL     1      49.460   7.946  17.635  0.00  0.00    +0.000 C 
BRANCH   7   8
ATOM      8  C   UNL     1      48.342   7.695  18.651  0.00  0.00    +0.000 C 
BRANCH   8   9
ATOM      9  C   UNL     1      48.440   6.359  19.353  0.00  0.00    +0.000 C 
ATOM     10  O   UNL     1      48.487   6.285  20.581  0.00  0.00    +0.000 OA
BRANCH   9  16
ATOM     11  C   UNL     1      49.609   4.293  18.317  0.00  0.00    +0.000 A 
ATOM     12  C   UNL     1      49.512   3.180  17.467  0.00  0.00    +0.000 A 
ATOM     13  C   UNL     1      48.301   2.845  16.858  0.00  0.00    +0.000 A 
ATOM     14  C   UNL     1      47.166   3.605  17.104  0.00  0.00    +0.000 A 
ATOM     15  C   UNL     1      47.249   4.722  17.935  0.00  0.00    +0.000 A 
ATOM     16  C   UNL     1      48.466   5.093  18.536  0.00  0.00    +0.000 A 
BRANCH  11  18
ATOM     17  C   UNL     1      51.824   5.195  18.276  0.00  0.00    +0.000 C 
ATOM     18  O   UNL     1      50.759   4.588  18.996  0.00  0.00    +0.000 OA
ENDBRANCH  11  18
ENDBRANCH   9  16
ENDBRANCH   8   9
ENDBRANCH   7   8
ENDBRANCH   1   7
BRANCH   4  19
ATOM     19  C   UNL     1      47.649   7.726  12.072  0.00  0.00    +0.000 C 
BRANCH  19  20
ATOM     20  N   UNL     1      46.935   6.505  11.805  0.00  0.00    +0.000 N 
ATOM     21  C   UNL     1      45.576   6.422  11.963  0.00  0.00    +0.000 C 
ATOM     22  O   UNL     1      44.896   7.389  12.295  0.00  0.00    +0.000 OA
ATOM     23  H   UNL     1      47.484   5.652  11.778  0.00  0.00    +0.000 HD
BRANCH  21  24
ATOM     24  C   UNL     1      44.964   5.124  11.655  0.00  0.00    +0.000 A 
ATOM     25  C   UNL     1      44.260   4.440  12.636  0.00  0.00    +0.000 A 
ATOM     26  S   UNL     1      43.580   2.972  12.094  0.00  0.00    +0.000 S 
ATOM     27  C   UNL     1      44.242   3.178  10.541  0.00  0.00    +0.000 A 
ATOM     28  N   UNL     1      44.059   2.240   9.570  0.00  0.00    +0.000 NA
ATOM     29  C   UNL     1      44.635   2.513   8.449  0.00  0.00    +0.000 A 
ATOM     30  N   UNL     1      45.379   3.640   8.206  0.00  0.00    +0.000 N 
ATOM     31  C   UNL     1      45.574   4.619   9.145  0.00  0.00    +0.000 A 
ATOM     32  O   UNL     1      46.216   5.633   8.888  0.00  0.00    +0.000 OA
ATOM     33  C   UNL     1      44.954   4.358  10.431  0.00  0.00    +0.000 A 
ATOM     34  H   UNL     1      45.795   3.799   7.300  0.00  0.00    +0.000 HD
ENDBRANCH  21  24
ENDBRANCH  19  20
ENDBRANCH   4  19
TORSDOF 8
ENDMDL
MODEL 5
REMARK VINA RESULT:    -6.903      3.817      5.653
REMARK INTER + INTRA:         -11.821
REMARK INTER:                 -10.990
REMARK INTRA:                  -0.831
REMARK UNBOUND:                -1.689
REMARK  Name = 
REMARK  9 active torsions:
REMARK  status: ('A' for Active; 'I' for Inactive)
REMARK    1  A    between atoms: C_1  and  O_2
REMARK    2  A    between atoms: O_2  and  C_3
REMARK    3  A    between atoms: C_8  and  C_9
REMARK    4  A    between atoms: C_9  and  C_11
REMARK    5  A    between atoms: C_11  and  C_12
REMARK    6  A    between atoms: C_12  and  C_13
REMARK    7  A    between atoms: C_16  and  C_17
REMARK    8  A    between atoms: C_17  and  N_18
REMARK    9  A    between atoms: C_19  and  C_21
REMARK                            x       y       z     vdW  Elec       q    Type
REMARK                         _______ _______ _______ _____ _____    ______ ____
ROOT
ATOM      1  C   UNL     1      45.302   4.704  12.045  0.00  0.00    +0.000 A 
ATOM      2  C   UNL     1      45.851   4.169  13.218  0.00  0.00    +0.000 A 
ATOM      3  C   UNL     1      46.871   4.842  13.906  0.00  0.00    +0.000 A 
ATOM      4  C   UNL     1      47.359   6.066  13.435  0.00  0.00    +0.000 A 
ATOM      5  C   UNL     1      46.846   6.579  12.240  0.00  0.00    +0.000 A 
ATOM      6  C   UNL     1      45.834   5.905  11.554  0.00  0.00    +0.000 A 
ENDROOT
BRANCH   1   7
ATOM      7  C   UNL     1      44.202   3.951  11.320  0.00  0.00    +0.000 C 
BRANCH   7   8
ATOM      8  C   UNL     1      44.339   3.990   9.796  0.00  0.00    +0.000 C 
BRANCH   8   9
ATOM      9  C   UNL     1      44.743   2.669   9.183  0.00  0.00    +0.000 C 
ATOM     10  O   UNL     1      44.184   1.619   9.502  0.00  0.00    +0.000 OA
BRANCH   9  16
ATOM     11  C   UNL     1      46.560   1.482   7.770  0.00  0.00    +0.000 A 
ATOM     12  C   UNL     1      47.615   1.606   6.852  0.00  0.00    +0.000 A 
ATOM     13  C   UNL     1      47.944   2.846   6.299  0.00  0.00    +0.000 A 
ATOM     14  C   UNL     1      47.213   3.974   6.641  0.00  0.00    +0.000 A 
ATOM     15  C   UNL     1      46.170   3.870   7.561  0.00  0.00    +0.000 A 
ATOM     16  C   UNL     1      45.840   2.636   8.150  0.00  0.00    +0.000 A 
BRANCH  11  18
ATOM     17  C   UNL     1      46.667  -0.904   7.625  0.00  0.00    +0.000 C 
ATOM     18  O   UNL     1      46.160   0.267   8.254  0.00  0.00    +0.000 OA
ENDBRANCH  11  18
ENDBRANCH   9  16
ENDBRANCH   8   9
ENDBRANCH   7   8
ENDBRANCH   1   7
BRANCH   4  19
ATOM     19  C   UNL     1      48.451   6.810  14.157  0.00  0.00    +0.000 C 
BRANCH  19  20
ATOM     20  N   UNL     1      48.143   6.942  15.557  0.00  0.00    +0.000 N 
ATOM     21  C   UNL     1      48.879   6.297  16.516  0.00  0.00    +0.000 C 
ATOM     22  O   UNL     1      49.862   5.616  16.237  0.00  0.00    +0.000 OA
ATOM     23  H   UNL     1      47.214   7.282  15.789  0.00  0.00    +0.000 HD
BRANCH  21  24
ATOM     24  C   UNL     1      48.467   6.516  17.908  0.00  0.00    +0.000 A 
ATOM     25  C   UNL     1      48.457   5.454  18.801  0.00  0.00    +0.000 A 
ATOM     26  S   UNL     1      47.994   5.894  20.383  0.00  0.00    +0.000 S 
ATOM     27  C   UNL     1      47.748   7.512  19.918  0.00  0.00    +0.000 A 
ATOM     28  N   UNL     1      47.308   8.440  20.812  0.00  0.00    +0.000 NA
ATOM     29  C   UNL     1      47.143   9.620  20.319  0.00  0.00    +0.000 A 
ATOM     30  N   UNL     1      47.377   9.961  19.011  0.00  0.00    +0.000 N 
ATOM     31  C   UNL     1      47.838   9.065  18.080  0.00  0.00    +0.000 A 
ATOM     32  O   UNL     1      48.072   9.407  16.925  0.00  0.00    +0.000 OA
ATOM     33  C   UNL     1      48.034   7.717  18.581  0.00  0.00    +0.000 A 
ATOM     34  H   UNL     1      47.239  10.907  18.690  0.00  0.00    +0.000 HD
ENDBRANCH  21  24
ENDBRANCH  19  20
ENDBRANCH   4  19
TORSDOF 8
ENDMDL
MODEL 6
REMARK VINA RESULT:    -6.658      3.918      9.054
REMARK INTER + INTRA:         -11.461
REMARK INTER:                  -9.764
REMARK INTRA:                  -1.697
REMARK UNBOUND:                -1.689
REMARK  Name = 
REMARK  9 active torsions:
REMARK  status: ('A' for Active; 'I' for Inactive)
REMARK    1  A    between atoms: C_1  and  O_2
REMARK    2  A    between atoms: O_2  and  C_3
REMARK    3  A    between atoms: C_8  and  C_9
REMARK    4  A    between atoms: C_9  and  C_11
REMARK    5  A    between atoms: C_11  and  C_12
REMARK    6  A    between atoms: C_12  and  C_13
REMARK    7  A    between atoms: C_16  and  C_17
REMARK    8  A    between atoms: C_17  and  N_18
REMARK    9  A    between atoms: C_19  and  C_21
REMARK                            x       y       z     vdW  Elec       q    Type
REMARK                         _______ _______ _______ _____ _____    ______ ____
ROOT
ATOM      1  C   UNL     1      50.537   7.467  15.174  0.00  0.00    +0.000 A 
ATOM      2  C   UNL     1      50.847   8.241  14.048  0.00  0.00    +0.000 A 
ATOM      3  C   UNL     1      49.932   8.372  12.993  0.00  0.00    +0.000 A 
ATOM      4  C   UNL     1      48.687   7.735  13.047  0.00  0.00    +0.000 A 
ATOM      5  C   UNL     1      48.395   6.925  14.148  0.00  0.00    +0.000 A 
ATOM      6  C   UNL     1      49.309   6.791  15.195  0.00  0.00    +0.000 A 
ENDROOT
BRANCH   1   7
ATOM      7  C   UNL     1      51.549   7.340  16.299  0.00  0.00    +0.000 C 
BRANCH   7   8
ATOM      8  C   UNL     1      50.930   7.476  17.692  0.00  0.00    +0.000 C 
BRANCH   8   9
ATOM      9  C   UNL     1      51.044   6.228  18.538  0.00  0.00    +0.000 C 
ATOM     10  O   UNL     1      51.672   6.229  19.597  0.00  0.00    +0.000 OA
BRANCH   9  16
ATOM     11  C   UNL     1      48.969   4.749  18.073  0.00  0.00    +0.000 A 
ATOM     12  C   UNL     1      48.471   3.490  17.702  0.00  0.00    +0.000 A 
ATOM     13  C   UNL     1      49.335   2.458  17.328  0.00  0.00    +0.000 A 
ATOM     14  C   UNL     1      50.705   2.675  17.301  0.00  0.00    +0.000 A 
ATOM     15  C   UNL     1      51.216   3.917  17.679  0.00  0.00    +0.000 A 
ATOM     16  C   UNL     1      50.365   4.960  18.085  0.00  0.00    +0.000 A 
BRANCH  11  18
ATOM     17  C   UNL     1      46.822   5.514  18.798  0.00  0.00    +0.000 C 
ATOM     18  O   UNL     1      48.141   5.802  18.354  0.00  0.00    +0.000 OA
ENDBRANCH  11  18
ENDBRANCH   9  16
ENDBRANCH   8   9
ENDBRANCH   7   8
ENDBRANCH   1   7
BRANCH   4  19
ATOM     19  C   UNL     1      47.687   7.863  11.930  0.00  0.00    +0.000 C 
BRANCH  19  20
ATOM     20  N   UNL     1      46.963   6.632  11.745  0.00  0.00    +0.000 N 
ATOM     21  C   UNL     1      45.593   6.594  11.786  0.00  0.00    +0.000 C 
ATOM     22  O   UNL     1      44.915   7.607  11.934  0.00  0.00    +0.000 OA
ATOM     23  H   UNL     1      47.488   5.772  11.872  0.00  0.00    +0.000 HD
BRANCH  21  24
ATOM     24  C   UNL     1      44.974   5.279  11.580  0.00  0.00    +0.000 A 
ATOM     25  C   UNL     1      44.271   4.677  12.613  0.00  0.00    +0.000 A 
ATOM     26  S   UNL     1      43.581   3.175  12.188  0.00  0.00    +0.000 S 
ATOM     27  C   UNL     1      44.238   3.258  10.621  0.00  0.00    +0.000 A 
ATOM     28  N   UNL     1      44.046   2.249   9.726  0.00  0.00    +0.000 NA
ATOM     29  C   UNL     1      44.619   2.433   8.585  0.00  0.00    +0.000 A 
ATOM     30  N   UNL     1      45.368   3.533   8.253  0.00  0.00    +0.000 N 
ATOM     31  C   UNL     1      45.572   4.581   9.115  0.00  0.00    +0.000 A 
ATOM     32  O   UNL     1      46.217   5.568   8.778  0.00  0.00    +0.000 OA
ATOM     33  C   UNL     1      44.955   4.422  10.418  0.00  0.00    +0.000 A 
ATOM     34  H   UNL     1      45.781   3.621   7.337  0.00  0.00    +0.000 HD
ENDBRANCH  21  24
ENDBRANCH  19  20
ENDBRANCH   4  19
TORSDOF 8
ENDMDL
MODEL 7
REMARK VINA RESULT:    -6.604      4.589      9.144
REMARK INTER + INTRA:         -11.383
REMARK INTER:                  -9.136
REMARK INTRA:                  -2.247
REMARK UNBOUND:                -1.689
REMARK  Name = 
REMARK  9 active torsions:
REMARK  status: ('A' for Active; 'I' for Inactive)
REMARK    1  A    between atoms: C_1  and  O_2
REMARK    2  A    between atoms: O_2  and  C_3
REMARK    3  A    between atoms: C_8  and  C_9
REMARK    4  A    between atoms: C_9  and  C_11
REMARK    5  A    between atoms: C_11  and  C_12
REMARK    6  A    between atoms: C_12  and  C_13
REMARK    7  A    between atoms: C_16  and  C_17
REMARK    8  A    between atoms: C_17  and  N_18
REMARK    9  A    between atoms: C_19  and  C_21
REMARK                            x       y       z     vdW  Elec       q    Type
REMARK                         _______ _______ _______ _____ _____    ______ ____
ROOT
ATOM      1  C   UNL     1      49.246   5.525  19.877  0.00  0.00    +0.000 A 
ATOM      2  C   UNL     1      47.900   5.722  19.538  0.00  0.00    +0.000 A 
ATOM      3  C   UNL     1      47.340   5.087  18.421  0.00  0.00    +0.000 A 
ATOM      4  C   UNL     1      48.115   4.239  17.622  0.00  0.00    +0.000 A 
ATOM      5  C   UNL     1      49.469   4.077  17.929  0.00  0.00    +0.000 A 
ATOM      6  C   UNL     1      50.026   4.714  19.040  0.00  0.00    +0.000 A 
ENDROOT
BRANCH   1   7
ATOM      7  C   UNL     1      49.825   6.228  21.090  0.00  0.00    +0.000 C 
BRANCH   7   8
ATOM      8  C   UNL     1      51.115   6.996  20.791  0.00  0.00    +0.000 C 
BRANCH   8   9
ATOM      9  C   UNL     1      50.890   8.427  20.358  0.00  0.00    +0.000 C 
ATOM     10  O   UNL     1      51.503   9.357  20.883  0.00  0.00    +0.000 OA
BRANCH   9  16
ATOM     11  C   UNL     1      48.629   9.292  19.437  0.00  0.00    +0.000 A 
ATOM     12  C   UNL     1      47.780   9.439  18.329  0.00  0.00    +0.000 A 
ATOM     13  C   UNL     1      48.191   9.049  17.053  0.00  0.00    +0.000 A 
ATOM     14  C   UNL     1      49.461   8.525  16.863  0.00  0.00    +0.000 A 
ATOM     15  C   UNL     1      50.313   8.361  17.956  0.00  0.00    +0.000 A 
ATOM     16  C   UNL     1      49.907   8.722  19.253  0.00  0.00    +0.000 A 
BRANCH  11  18
ATOM     17  C   UNL     1      47.347   8.993  21.436  0.00  0.00    +0.000 C 
ATOM     18  O   UNL     1      48.284   9.750  20.680  0.00  0.00    +0.000 OA
ENDBRANCH  11  18
ENDBRANCH   9  16
ENDBRANCH   8   9
ENDBRANCH   7   8
ENDBRANCH   1   7
BRANCH   4  19
ATOM     19  C   UNL     1      47.537   3.543  16.418  0.00  0.00    +0.000 C 
BRANCH  19  20
ATOM     20  N   UNL     1      46.883   4.483  15.546  0.00  0.00    +0.000 N 
ATOM     21  C   UNL     1      46.842   4.293  14.190  0.00  0.00    +0.000 C 
ATOM     22  O   UNL     1      47.316   3.295  13.655  0.00  0.00    +0.000 OA
ATOM     23  H   UNL     1      46.712   5.411  15.923  0.00  0.00    +0.000 HD
BRANCH  21  24
ATOM     24  C   UNL     1      46.142   5.322  13.411  0.00  0.00    +0.000 A 
ATOM     25  C   UNL     1      46.743   6.553  13.194  0.00  0.00    +0.000 A 
ATOM     26  S   UNL     1      45.811   7.611  12.233  0.00  0.00    +0.000 S 
ATOM     27  C   UNL     1      44.551   6.475  12.111  0.00  0.00    +0.000 A 
ATOM     28  N   UNL     1      43.408   6.765  11.430  0.00  0.00    +0.000 NA
ATOM     29  C   UNL     1      42.529   5.822  11.438  0.00  0.00    +0.000 A 
ATOM     30  N   UNL     1      42.684   4.612  12.065  0.00  0.00    +0.000 N 
ATOM     31  C   UNL     1      43.824   4.269  12.747  0.00  0.00    +0.000 A 
ATOM     32  O   UNL     1      43.948   3.166  13.269  0.00  0.00    +0.000 OA
ATOM     33  C   UNL     1      44.845   5.299  12.776  0.00  0.00    +0.000 A 
ATOM     34  H   UNL     1      41.960   3.911  12.024  0.00  0.00    +0.000 HD
ENDBRANCH  21  24
ENDBRANCH  19  20
ENDBRANCH   4  19
TORSDOF 8
ENDMDL
MODEL 8
REMARK VINA RESULT:    -6.515      2.511      4.433
REMARK INTER + INTRA:         -11.251
REMARK INTER:                 -10.008
REMARK INTRA:                  -1.244
REMARK UNBOUND:                -1.689
REMARK  Name = 
REMARK  9 active torsions:
REMARK  status: ('A' for Active; 'I' for Inactive)
REMARK    1  A    between atoms: C_1  and  O_2
REMARK    2  A    between atoms: O_2  and  C_3
REMARK    3  A    between atoms: C_8  and  C_9
REMARK    4  A    between atoms: C_9  and  C_11
REMARK    5  A    between atoms: C_11  and  C_12
REMARK    6  A    between atoms: C_12  and  C_13
REMARK    7  A    between atoms: C_16  and  C_17
REMARK    8  A    between atoms: C_17  and  N_18
REMARK    9  A    between atoms: C_19  and  C_21
REMARK                            x       y       z     vdW  Elec       q    Type
REMARK                         _______ _______ _______ _____ _____    ______ ____
ROOT
ATOM      1  C   UNL     1      46.755   7.713  11.994  0.00  0.00    +0.000 A 
ATOM      2  C   UNL     1      47.186   9.039  12.137  0.00  0.00    +0.000 A 
ATOM      3  C   UNL     1      48.524   9.331  12.438  0.00  0.00    +0.000 A 
ATOM      4  C   UNL     1      49.458   8.301  12.598  0.00  0.00    +0.000 A 
ATOM      5  C   UNL     1      49.021   6.977  12.502  0.00  0.00    +0.000 A 
ATOM      6  C   UNL     1      47.687   6.688  12.208  0.00  0.00    +0.000 A 
ENDROOT
BRANCH   1   7
ATOM      7  C   UNL     1      45.299   7.428  11.671  0.00  0.00    +0.000 C 
BRANCH   7   8
ATOM      8  C   UNL     1      44.884   5.983  11.958  0.00  0.00    +0.000 C 
BRANCH   8   9
ATOM      9  C   UNL     1      43.968   5.389  10.911  0.00  0.00    +0.000 C 
ATOM     10  O   UNL     1      42.804   5.770  10.792  0.00  0.00    +0.000 OA
BRANCH   9  16
ATOM     11  C   UNL     1      44.212   2.942  10.100  0.00  0.00    +0.000 A 
ATOM     12  C   UNL     1      44.832   2.043   9.218  0.00  0.00    +0.000 A 
ATOM     13  C   UNL     1      45.702   2.497   8.225  0.00  0.00    +0.000 A 
ATOM     14  C   UNL     1      45.949   3.855   8.085  0.00  0.00    +0.000 A 
ATOM     15  C   UNL     1      45.351   4.760   8.962  0.00  0.00    +0.000 A 
ATOM     16  C   UNL     1      44.493   4.321   9.987  0.00  0.00    +0.000 A 
BRANCH  11  18
ATOM     17  C   UNL     1      43.681   2.478  12.386  0.00  0.00    +0.000 C 
ATOM     18  O   UNL     1      43.287   2.532  11.021  0.00  0.00    +0.000 OA
ENDBRANCH  11  18
ENDBRANCH   9  16
ENDBRANCH   8   9
ENDBRANCH   7   8
ENDBRANCH   1   7
BRANCH   4  19
ATOM     19  C   UNL     1      50.901   8.588  12.918  0.00  0.00    +0.000 C 
BRANCH  19  20
ATOM     20  N   UNL     1      51.378   7.719  13.962  0.00  0.00    +0.000 N 
ATOM     21  C   UNL     1      51.298   8.076  15.283  0.00  0.00    +0.000 C 
ATOM     22  O   UNL     1      50.777   9.128  15.645  0.00  0.00    +0.000 OA
ATOM     23  H   UNL     1      52.021   6.984  13.685  0.00  0.00    +0.000 HD
BRANCH  21  24
ATOM     24  C   UNL     1      51.814   7.103  16.251  0.00  0.00    +0.000 A 
ATOM     25  C   UNL     1      53.124   7.200  16.699  0.00  0.00    +0.000 A 
ATOM     26  S   UNL     1      53.543   6.016  17.853  0.00  0.00    +0.000 S 
ATOM     27  C   UNL     1      52.002   5.303  17.761  0.00  0.00    +0.000 A 
ATOM     28  N   UNL     1      51.695   4.197  18.493  0.00  0.00    +0.000 NA
ATOM     29  C   UNL     1      50.500   3.750  18.308  0.00  0.00    +0.000 A 
ATOM     30  N   UNL     1      49.579   4.306  17.457  0.00  0.00    +0.000 N 
ATOM     31  C   UNL     1      49.837   5.429  16.714  0.00  0.00    +0.000 A 
ATOM     32  O   UNL     1      48.981   5.924  15.987  0.00  0.00    +0.000 OA
ATOM     33  C   UNL     1      51.173   5.971  16.878  0.00  0.00    +0.000 A 
ATOM     34  H   UNL     1      48.654   3.912  17.367  0.00  0.00    +0.000 HD
ENDBRANCH  21  24
ENDBRANCH  19  20
ENDBRANCH   4  19
TORSDOF 8
ENDMDL
MODEL 9
REMARK VINA RESULT:    -6.436      4.065      8.706
REMARK INTER + INTRA:         -11.136
REMARK INTER:                  -9.040
REMARK INTRA:                  -2.096
REMARK UNBOUND:                -1.689
REMARK  Name = 
REMARK  9 active torsions:
REMARK  status: ('A' for Active; 'I' for Inactive)
REMARK    1  A    between atoms: C_1  and  O_2
REMARK    2  A    between atoms: O_2  and  C_3
REMARK    3  A    between atoms: C_8  and  C_9
REMARK    4  A    between atoms: C_9  and  C_11
REMARK    5  A    between atoms: C_11  and  C_12
REMARK    6  A    between atoms: C_12  and  C_13
REMARK    7  A    between atoms: C_16  and  C_17
REMARK    8  A    between atoms: C_17  and  N_18
REMARK    9  A    between atoms: C_19  and  C_21
REMARK                            x       y       z     vdW  Elec       q    Type
REMARK                         _______ _______ _______ _____ _____    ______ ____
ROOT
ATOM      1  C   UNL     1      49.107   7.716  17.696  0.00  0.00    +0.000 A 
ATOM      2  C   UNL     1      48.504   8.969  17.525  0.00  0.00    +0.000 A 
ATOM      3  C   UNL     1      48.069   9.390  16.260  0.00  0.00    +0.000 A 
ATOM      4  C   UNL     1      48.224   8.563  15.142  0.00  0.00    +0.000 A 
ATOM      5  C   UNL     1      48.868   7.332  15.302  0.00  0.00    +0.000 A 
ATOM      6  C   UNL     1      49.305   6.917  16.561  0.00  0.00    +0.000 A 
ENDROOT
BRANCH   1   7
ATOM      7  C   UNL     1      49.571   7.289  19.076  0.00  0.00    +0.000 C 
BRANCH   7   8
ATOM      8  C   UNL     1      48.479   6.605  19.902  0.00  0.00    +0.000 C 
BRANCH   8   9
ATOM      9  C   UNL     1      48.664   5.111  20.046  0.00  0.00    +0.000 C 
ATOM     10  O   UNL     1      48.821   4.590  21.150  0.00  0.00    +0.000 OA
BRANCH   9  16
ATOM     11  C   UNL     1      49.781   3.692  18.190  0.00  0.00    +0.000 A 
ATOM     12  C   UNL     1      49.624   2.962  17.001  0.00  0.00    +0.000 A 
ATOM     13  C   UNL     1      48.360   2.756  16.447  0.00  0.00    +0.000 A 
ATOM     14  C   UNL     1      47.233   3.259  17.082  0.00  0.00    +0.000 A 
ATOM     15  C   UNL     1      47.373   3.997  18.257  0.00  0.00    +0.000 A 
ATOM     16  C   UNL     1      48.640   4.239  18.816  0.00  0.00    +0.000 A 
BRANCH  11  18
ATOM     17  C   UNL     1      52.166   3.598  18.024  0.00  0.00    +0.000 C 
ATOM     18  O   UNL     1      50.998   3.829  18.801  0.00  0.00    +0.000 OA
ENDBRANCH  11  18
ENDBRANCH   9  16
ENDBRANCH   8   9
ENDBRANCH   7   8
ENDBRANCH   1   7
BRANCH   4  19
ATOM     19  C   UNL     1      47.762   8.990  13.775  0.00  0.00    +0.000 C 
BRANCH  19  20
ATOM     20  N   UNL     1      46.600   8.243  13.369  0.00  0.00    +0.000 N 
ATOM     21  C   UNL     1      46.676   7.263  12.415  0.00  0.00    +0.000 C 
ATOM     22  O   UNL     1      47.739   6.940  11.892  0.00  0.00    +0.000 OA
ATOM     23  H   UNL     1      45.697   8.651  13.592  0.00  0.00    +0.000 HD
BRANCH  21  24
ATOM     24  C   UNL     1      45.421   6.573  12.092  0.00  0.00    +0.000 A 
ATOM     25  C   UNL     1      44.363   7.282  11.543  0.00  0.00    +0.000 A 
ATOM     26  S   UNL     1      43.001   6.316  11.191  0.00  0.00    +0.000 S 
ATOM     27  C   UNL     1      43.764   4.924  11.801  0.00  0.00    +0.000 A 
ATOM     28  N   UNL     1      43.120   3.724  11.824  0.00  0.00    +0.000 NA
ATOM     29  C   UNL     1      43.808   2.760  12.334  0.00  0.00    +0.000 A 
ATOM     30  N   UNL     1      45.083   2.882  12.825  0.00  0.00    +0.000 N 
ATOM     31  C   UNL     1      45.776   4.065  12.806  0.00  0.00    +0.000 A 
ATOM     32  O   UNL     1      46.929   4.136  13.220  0.00  0.00    +0.000 OA
ATOM     33  C   UNL     1      45.045   5.187  12.248  0.00  0.00    +0.000 A 
ATOM     34  H   UNL     1      45.571   2.083  13.202  0.00  0.00    +0.000 HD
ENDBRANCH  21  24
ENDBRANCH  19  20
ENDBRANCH   4  19
TORSDOF 8
ENDMDL
