MODEL 1
REMARK VINA RESULT:    -8.085      0.000      0.000
REMARK INTER + INTRA:         -10.567
REMARK INTER:                  -9.975
REMARK INTRA:                  -0.592
REMARK UNBOUND:                -0.592
REMARK  Name = 
REMARK  4 active torsions:
REMARK  status: ('A' for Active; 'I' for Inactive)
REMARK    1  A    between atoms: C_4  and  C_5
REMARK    2  A    between atoms: C_5  and  O_6
REMARK    3  A    between atoms: O_6  and  C_7
REMARK    4  A    between atoms: C_14  and  C_15
REMARK                            x       y       z     vdW  Elec       q    Type
REMARK                         _______ _______ _______ _____ _____    ______ ____
ROOT
ATOM      1  F   UNL     1      42.459   5.266  13.302  0.00  0.00    +0.000 F 
ATOM      2  C   UNL     1      43.488   5.296  12.443  0.00  0.00    +0.000 A 
ATOM      3  C   UNL     1      43.322   4.781  11.167  0.00  0.00    +0.000 A 
ATOM      4  C   UNL     1      44.399   4.787  10.277  0.00  0.00    +0.000 A 
ATOM      5  C   UNL     1      45.624   5.342  10.693  0.00  0.00    +0.000 A 
ATOM      6  C   UNL     1      45.807   5.874  11.988  0.00  0.00    +0.000 A 
ATOM      7  C   UNL     1      44.704   5.836  12.855  0.00  0.00    +0.000 A 
ENDROOT
BRANCH   6   8
ATOM      8  C   UNL     1      47.110   6.434  12.415  0.00  0.00    +0.000 A 
ATOM      9  C   UNL     1      47.836   7.336  11.620  0.00  0.00    +0.000 A 
ATOM     10  C   UNL     1      49.058   7.851  12.056  0.00  0.00    +0.000 A 
ATOM     11  C   UNL     1      49.532   7.461  13.295  0.00  0.00    +0.000 A 
ATOM     12  N   UNL     1      48.881   6.600  14.100  0.00  0.00    +0.000 NA
ATOM     13  C   UNL     1      47.702   6.109  13.640  0.00  0.00    +0.000 A 
ENDBRANCH   6   8
BRANCH   4  14
ATOM     14  C   UNL     1      44.253   4.214   8.890  0.00  0.00    +0.000 C 
BRANCH  14  15
ATOM     15  O   UNL     1      45.465   4.425   8.170  0.00  0.00    +0.000 OA
BRANCH  15  16
ATOM     16  C   UNL     1      46.083   3.305   7.685  0.00  0.00    +0.000 A 
ATOM     17  C   UNL     1      46.868   3.224   6.538  0.00  0.00    +0.000 A 
ATOM     18  C   UNL     1      47.435   2.003   6.173  0.00  0.00    +0.000 A 
ATOM     19  C   UNL     1      47.198   0.899   6.971  0.00  0.00    +0.000 A 
ATOM     20  N   UNL     1      46.442   0.933   8.088  0.00  0.00    +0.000 NA
ATOM     21  C   UNL     1      45.903   2.133   8.415  0.00  0.00    +0.000 A 
ENDBRANCH  15  16
ENDBRANCH  14  15
ENDBRANCH   4  14
TORSDOF 4
ENDMDL
MODEL 2
REMARK VINA RESULT:    -7.819      1.727      6.098
REMARK INTER + INTRA:         -10.239
REMARK INTER:                  -9.480
REMARK INTRA:                  -0.759
REMARK UNBOUND:                -0.592
REMARK  Name = 
REMARK  4 active torsions:
REMARK  status: ('A' for Active; 'I' for Inactive)
REMARK    1  A    between atoms: C_4  and  C_5
REMARK    2  A    between atoms: C_5  and  O_6
REMARK    3  A    between atoms: O_6  and  C_7
REMARK    4  A    between atoms: C_14  and  C_15
REMARK                            x       y       z     vdW  Elec       q    Type
REMARK                         _______ _______ _______ _____ _____    ______ ____
ROOT
ATOM      1  F   UNL     1      42.875   1.895  11.752  0.00  0.00    +0.000 F 
ATOM      2  C   UNL     1      43.620   2.775  11.069  0.00  0.00    +0.000 A 
ATOM      3  C   UNL     1      43.623   4.107  11.454  0.00  0.00    +0.000 A 
ATOM      4  C   UNL     1      44.380   5.031  10.730  0.00  0.00    +0.000 A 
ATOM      5  C   UNL     1      45.144   4.580   9.637  0.00  0.00    +0.000 A 
ATOM      6  C   UNL     1      45.155   3.226   9.235  0.00  0.00    +0.000 A 
ATOM      7  C   UNL     1      44.371   2.333   9.982  0.00  0.00    +0.000 A 
ENDROOT
BRANCH   6   8
ATOM      8  C   UNL     1      45.949   2.774   8.070  0.00  0.00    +0.000 A 
ATOM      9  C   UNL     1      46.223   3.613   6.977  0.00  0.00    +0.000 A 
ATOM     10  C   UNL     1      46.982   3.158   5.898  0.00  0.00    +0.000 A 
ATOM     11  C   UNL     1      47.467   1.864   5.935  0.00  0.00    +0.000 A 
ATOM     12  N   UNL     1      47.237   1.014   6.954  0.00  0.00    +0.000 NA
ATOM     13  C   UNL     1      46.485   1.486   7.981  0.00  0.00    +0.000 A 
ENDBRANCH   6   8
BRANCH   4  14
ATOM     14  C   UNL     1      44.384   6.489  11.113  0.00  0.00    +0.000 C 
BRANCH  14  15
ATOM     15  O   UNL     1      44.945   6.625  12.417  0.00  0.00    +0.000 OA
BRANCH  15  16
ATOM     16  C   UNL     1      46.300   6.803  12.476  0.00  0.00    +0.000 A 
ATOM     17  C   UNL     1      47.018   7.867  11.936  0.00  0.00    +0.000 A 
ATOM     18  C   UNL     1      48.405   7.909  12.081  0.00  0.00    +0.000 A 
ATOM     19  C   UNL     1      49.030   6.882  12.765  0.00  0.00    +0.000 A 
ATOM     20  N   UNL     1      48.373   5.832  13.300  0.00  0.00    +0.000 NA
ATOM     21  C   UNL     1      47.026   5.819  13.140  0.00  0.00    +0.000 A 
ENDBRANCH  15  16
ENDBRANCH  14  15
ENDBRANCH   4  14
TORSDOF 4
ENDMDL
MODEL 3
REMARK VINA RESULT:    -7.678      2.075      2.348
REMARK INTER + INTRA:         -10.065
REMARK INTER:                  -9.443
REMARK INTRA:                  -0.623
REMARK UNBOUND:                -0.592
REMARK  Name = 
REMARK  4 active torsions:
REMARK  status: ('A' for Active; 'I' for Inactive)
REMARK    1  A    between atoms: C_4  and  C_5
REMARK    2  A    between atoms: C_5  and  O_6
REMARK    3  A    between atoms: O_6  and  C_7
REMARK    4  A    between atoms: C_14  and  C_15
REMARK                            x       y       z     vdW  Elec       q    Type
REMARK                         _______ _______ _______ _____ _____    ______ ____
ROOT
ATOM      1  F   UNL     1      46.975   3.223  14.227  0.00  0.00    +0.000 F 
ATOM      2  C   UNL     1      46.455   4.001  13.268  0.00  0.00    +0.000 A 
ATOM      3  C   UNL     1      45.565   3.454  12.356  0.00  0.00    +0.000 A 
ATOM      4  C   UNL     1      45.039   4.256  11.341  0.00  0.00    +0.000 A 
ATOM      5  C   UNL     1      45.409   5.613  11.283  0.00  0.00    +0.000 A 
ATOM      6  C   UNL     1      46.310   6.186  12.206  0.00  0.00    +0.000 A 
ATOM      7  C   UNL     1      46.826   5.342  13.203  0.00  0.00    +0.000 A 
ENDROOT
BRANCH   6   8
ATOM      8  C   UNL     1      46.704   7.611  12.116  0.00  0.00    +0.000 A 
ATOM      9  C   UNL     1      48.037   8.012  11.933  0.00  0.00    +0.000 A 
ATOM     10  C   UNL     1      48.372   9.364  11.844  0.00  0.00    +0.000 A 
ATOM     11  C   UNL     1      47.358  10.300  11.930  0.00  0.00    +0.000 A 
ATOM     12  N   UNL     1      46.063   9.976  12.105  0.00  0.00    +0.000 NA
ATOM     13  C   UNL     1      45.774   8.653  12.200  0.00  0.00    +0.000 A 
ENDBRANCH   6   8
BRANCH   4  14
ATOM     14  C   UNL     1      44.086   3.680  10.323  0.00  0.00    +0.000 C 
BRANCH  14  15
ATOM     15  O   UNL     1      44.496   4.088   9.020  0.00  0.00    +0.000 OA
BRANCH  15  16
ATOM     16  C   UNL     1      45.388   3.270   8.383  0.00  0.00    +0.000 A 
ATOM     17  C   UNL     1      46.272   3.638   7.372  0.00  0.00    +0.000 A 
ATOM     18  C   UNL     1      47.126   2.684   6.819  0.00  0.00    +0.000 A 
ATOM     19  C   UNL     1      47.068   1.387   7.299  0.00  0.00    +0.000 A 
ATOM     20  N   UNL     1      46.225   0.988   8.273  0.00  0.00    +0.000 NA
ATOM     21  C   UNL     1      45.406   1.938   8.788  0.00  0.00    +0.000 A 
ENDBRANCH  15  16
ENDBRANCH  14  15
ENDBRANCH   4  14
TORSDOF 4
ENDMDL
MODEL 4
REMARK VINA RESULT:    -7.441      2.016      2.751
REMARK INTER + INTRA:          -9.773
REMARK INTER:                  -9.093
REMARK INTRA:                  -0.680
REMARK UNBOUND:                -0.592
REMARK  Name = 
REMARK  4 active torsions:
REMARK  status: ('A' for Active; 'I' for Inactive)
REMARK    1  A    between atoms: C_4  and  C_5
REMARK    2  A    between atoms: C_5  and  O_6
REMARK    3  A    between atoms: O_6  and  C_7
REMARK    4  A    between atoms: C_14  and  C_15
REMARK                            x       y       z     vdW  Elec       q    Type
REMARK                         _______ _______ _______ _____ _____    ______ ____
ROOT
ATOM      1  F   UNL     1      45.309   8.034  11.226  0.00  0.00    +0.000 F 
ATOM      2  C   UNL     1      45.465   6.786  11.688  0.00  0.00    +0.000 A 
ATOM      3  C   UNL     1      44.875   5.731  11.009  0.00  0.00    +0.000 A 
ATOM      4  C   UNL     1      45.015   4.431  11.501  0.00  0.00    +0.000 A 
ATOM      5  C   UNL     1      45.777   4.221  12.667  0.00  0.00    +0.000 A 
ATOM      6  C   UNL     1      46.388   5.284  13.367  0.00  0.00    +0.000 A 
ATOM      7  C   UNL     1      46.211   6.576  12.846  0.00  0.00    +0.000 A 
ENDROOT
BRANCH   6   8
ATOM      8  C   UNL     1      47.168   5.046  14.603  0.00  0.00    +0.000 A 
ATOM      9  C   UNL     1      46.973   3.910  15.406  0.00  0.00    +0.000 A 
ATOM     10  C   UNL     1      47.732   3.713  16.561  0.00  0.00    +0.000 A 
ATOM     11  C   UNL     1      48.688   4.656  16.889  0.00  0.00    +0.000 A 
ATOM     12  N   UNL     1      48.920   5.762  16.159  0.00  0.00    +0.000 NA
ATOM     13  C   UNL     1      48.155   5.930  15.049  0.00  0.00    +0.000 A 
ENDBRANCH   6   8
BRANCH   4  14
ATOM     14  C   UNL     1      44.365   3.268  10.795  0.00  0.00    +0.000 C 
BRANCH  14  15
ATOM     15  O   UNL     1      44.281   3.559   9.401  0.00  0.00    +0.000 OA
BRANCH  15  16
ATOM     16  C   UNL     1      45.250   3.008   8.609  0.00  0.00    +0.000 A 
ATOM     17  C   UNL     1      46.025   3.676   7.664  0.00  0.00    +0.000 A 
ATOM     18  C   UNL     1      46.980   2.972   6.931  0.00  0.00    +0.000 A 
ATOM     19  C   UNL     1      47.130   1.617   7.169  0.00  0.00    +0.000 A 
ATOM     20  N   UNL     1      46.399   0.932   8.072  0.00  0.00    +0.000 NA
ATOM     21  C   UNL     1      45.477   1.644   8.766  0.00  0.00    +0.000 A 
ENDBRANCH  15  16
ENDBRANCH  14  15
ENDBRANCH   4  14
TORSDOF 4
ENDMDL
MODEL 5
REMARK VINA RESULT:    -7.277      2.582      3.021
REMARK INTER + INTRA:          -9.570
REMARK INTER:                  -8.845
REMARK INTRA:                  -0.725
REMARK UNBOUND:                -0.592
REMARK  Name = 
REMARK  4 active torsions:
REMARK  status: ('A' for Active; 'I' for Inactive)
REMARK    1  A    between atoms: C_4  and  C_5
REMARK    2  A    between atoms: C_5  and  O_6
REMARK    3  A    between atoms: O_6  and  C_7
REMARK    4  A    between atoms: C_14  and  C_15
REMARK                            x       y       z     vdW  Elec       q    Type
REMARK                         _______ _______ _______ _____ _____    ______ ____
ROOT
ATOM      1  F   UNL     1      47.292   4.482  13.965  0.00  0.00    +0.000 F 
ATOM      2  C   UNL     1      46.431   4.966  13.058  0.00  0.00    +0.000 A 
ATOM      3  C   UNL     1      45.681   4.084  12.295  0.00  0.00    +0.000 A 
ATOM      4  C   UNL     1      44.801   4.584  11.332  0.00  0.00    +0.000 A 
ATOM      5  C   UNL     1      44.679   5.978  11.178  0.00  0.00    +0.000 A 
ATOM      6  C   UNL     1      45.432   6.889  11.951  0.00  0.00    +0.000 A 
ATOM      7  C   UNL     1      46.314   6.345  12.898  0.00  0.00    +0.000 A 
ENDROOT
BRANCH   6   8
ATOM      8  C   UNL     1      45.305   8.352  11.759  0.00  0.00    +0.000 A 
ATOM      9  C   UNL     1      44.196   8.932  11.123  0.00  0.00    +0.000 A 
ATOM     10  C   UNL     1      44.104  10.316  10.967  0.00  0.00    +0.000 A 
ATOM     11  C   UNL     1      45.127  11.103  11.462  0.00  0.00    +0.000 A 
ATOM     12  N   UNL     1      46.214  10.604  12.080  0.00  0.00    +0.000 NA
ATOM     13  C   UNL     1      46.277   9.253  12.205  0.00  0.00    +0.000 A 
ENDBRANCH   6   8
BRANCH   4  14
ATOM     14  C   UNL     1      43.989   3.647  10.473  0.00  0.00    +0.000 C 
BRANCH  14  15
ATOM     15  O   UNL     1      44.216   3.961   9.101  0.00  0.00    +0.000 OA
BRANCH  15  16
ATOM     16  C   UNL     1      45.180   3.228   8.465  0.00  0.00    +0.000 A 
ATOM     17  C   UNL     1      46.067   3.692   7.496  0.00  0.00    +0.000 A 
ATOM     18  C   UNL     1      47.001   2.818   6.939  0.00  0.00    +0.000 A 
ATOM     19  C   UNL     1      47.017   1.504   7.371  0.00  0.00    +0.000 A 
ATOM     20  N   UNL     1      46.175   1.014   8.304  0.00  0.00    +0.000 NA
ATOM     21  C   UNL     1      45.277   1.887   8.824  0.00  0.00    +0.000 A 
ENDBRANCH  15  16
ENDBRANCH  14  15
ENDBRANCH   4  14
TORSDOF 4
ENDMDL
MODEL 6
REMARK VINA RESULT:    -6.967      1.593      2.046
REMARK INTER + INTRA:          -9.187
REMARK INTER:                  -8.624
REMARK INTRA:                  -0.563
REMARK UNBOUND:                -0.592
REMARK  Name = 
REMARK  4 active torsions:
REMARK  status: ('A' for Active; 'I' for Inactive)
REMARK    1  A    between atoms: C_4  and  C_5
REMARK    2  A    between atoms: C_5  and  O_6
REMARK    3  A    between atoms: O_6  and  C_7
REMARK    4  A    between atoms: C_14  and  C_15
REMARK                            x       y       z     vdW  Elec       q    Type
REMARK                         _______ _______ _______ _____ _____    ______ ____
ROOT
ATOM      1  F   UNL     1      42.723   7.672  11.050  0.00  0.00    +0.000 F 
ATOM      2  C   UNL     1      43.713   6.794  11.264  0.00  0.00    +0.000 A 
ATOM      3  C   UNL     1      43.495   5.448  11.009  0.00  0.00    +0.000 A 
ATOM      4  C   UNL     1      44.516   4.527  11.253  0.00  0.00    +0.000 A 
ATOM      5  C   UNL     1      45.755   4.994  11.731  0.00  0.00    +0.000 A 
ATOM      6  C   UNL     1      45.995   6.361  11.992  0.00  0.00    +0.000 A 
ATOM      7  C   UNL     1      44.937   7.251  11.745  0.00  0.00    +0.000 A 
ENDROOT
BRANCH   6   8
ATOM      8  C   UNL     1      47.298   6.829  12.515  0.00  0.00    +0.000 A 
ATOM      9  C   UNL     1      47.736   6.534  13.816  0.00  0.00    +0.000 A 
ATOM     10  C   UNL     1      48.974   6.984  14.274  0.00  0.00    +0.000 A 
ATOM     11  C   UNL     1      49.766   7.721  13.413  0.00  0.00    +0.000 A 
ATOM     12  N   UNL     1      49.401   8.035  12.156  0.00  0.00    +0.000 NA
ATOM     13  C   UNL     1      48.184   7.591  11.746  0.00  0.00    +0.000 A 
ENDBRANCH   6   8
BRANCH   4  14
ATOM     14  C   UNL     1      44.299   3.056  11.005  0.00  0.00    +0.000 C 
BRANCH  14  15
ATOM     15  O   UNL     1      43.973   2.860   9.631  0.00  0.00    +0.000 OA
BRANCH  15  16
ATOM     16  C   UNL     1      45.028   2.774   8.766  0.00  0.00    +0.000 A 
ATOM     17  C   UNL     1      45.789   1.638   8.499  0.00  0.00    +0.000 A 
ATOM     18  C   UNL     1      46.839   1.708   7.584  0.00  0.00    +0.000 A 
ATOM     19  C   UNL     1      47.095   2.917   6.963  0.00  0.00    +0.000 A 
ATOM     20  N   UNL     1      46.386   4.041   7.194  0.00  0.00    +0.000 NA
ATOM     21  C   UNL     1      45.374   3.941   8.091  0.00  0.00    +0.000 A 
ENDBRANCH  15  16
ENDBRANCH  14  15
ENDBRANCH   4  14
TORSDOF 4
ENDMDL
MODEL 7
REMARK VINA RESULT:    -6.746      1.722      6.408
REMARK INTER + INTRA:          -8.915
REMARK INTER:                  -8.323
REMARK INTRA:                  -0.591
REMARK UNBOUND:                -0.592
REMARK  Name = 
REMARK  4 active torsions:
REMARK  status: ('A' for Active; 'I' for Inactive)
REMARK    1  A    between atoms: C_4  and  C_5
REMARK    2  A    between atoms: C_5  and  O_6
REMARK    3  A    between atoms: O_6  and  C_7
REMARK    4  A    between atoms: C_14  and  C_15
REMARK                            x       y       z     vdW  Elec       q    Type
REMARK                         _______ _______ _______ _____ _____    ______ ____
ROOT
ATOM      1  F   UNL     1      41.789   5.389  11.573  0.00  0.00    +0.000 F 
ATOM      2  C   UNL     1      43.080   5.474  11.223  0.00  0.00    +0.000 A 
ATOM      3  C   UNL     1      43.861   6.491  11.750  0.00  0.00    +0.000 A 
ATOM      4  C   UNL     1      45.201   6.598  11.369  0.00  0.00    +0.000 A 
ATOM      5  C   UNL     1      45.733   5.650  10.474  0.00  0.00    +0.000 A 
ATOM      6  C   UNL     1      44.952   4.606   9.933  0.00  0.00    +0.000 A 
ATOM      7  C   UNL     1      43.607   4.542  10.331  0.00  0.00    +0.000 A 
ENDROOT
BRANCH   6   8
ATOM      8  C   UNL     1      45.525   3.631   8.977  0.00  0.00    +0.000 A 
ATOM      9  C   UNL     1      46.172   4.029   7.795  0.00  0.00    +0.000 A 
ATOM     10  C   UNL     1      46.708   3.083   6.920  0.00  0.00    +0.000 A 
ATOM     11  C   UNL     1      46.597   1.745   7.248  0.00  0.00    +0.000 A 
ATOM     12  N   UNL     1      45.988   1.304   8.365  0.00  0.00    +0.000 NA
ATOM     13  C   UNL     1      45.467   2.250   9.189  0.00  0.00    +0.000 A 
ENDBRANCH   6   8
BRANCH   4  14
ATOM     14  C   UNL     1      46.067   7.708  11.910  0.00  0.00    +0.000 C 
BRANCH  14  15
ATOM     15  O   UNL     1      46.541   7.338  13.203  0.00  0.00    +0.000 OA
BRANCH  15  16
ATOM     16  C   UNL     1      47.879   7.503  13.426  0.00  0.00    +0.000 A 
ATOM     17  C   UNL     1      48.764   8.241  12.643  0.00  0.00    +0.000 A 
ATOM     18  C   UNL     1      50.109   8.317  13.004  0.00  0.00    +0.000 A 
ATOM     19  C   UNL     1      50.528   7.649  14.141  0.00  0.00    +0.000 A 
ATOM     20  N   UNL     1      49.706   6.921  14.924  0.00  0.00    +0.000 NA
ATOM     21  C   UNL     1      48.405   6.865  14.546  0.00  0.00    +0.000 A 
ENDBRANCH  15  16
ENDBRANCH  14  15
ENDBRANCH   4  14
TORSDOF 4
ENDMDL
MODEL 8
REMARK VINA RESULT:    -6.694      3.079      6.943
REMARK INTER + INTRA:          -8.851
REMARK INTER:                  -8.191
REMARK INTRA:                  -0.661
REMARK UNBOUND:                -0.592
REMARK  Name = 
REMARK  4 active torsions:
REMARK  status: ('A' for Active; 'I' for Inactive)
REMARK    1  A    between atoms: C_4  and  C_5
REMARK    2  A    between atoms: C_5  and  O_6
REMARK    3  A    between atoms: O_6  and  C_7
REMARK    4  A    between atoms: C_14  and  C_15
REMARK                            x       y       z     vdW  Elec       q    Type
REMARK                         _______ _______ _______ _____ _____    ______ ____
ROOT
ATOM      1  F   UNL     1      44.411   9.639  12.062  0.00  0.00    +0.000 F 
ATOM      2  C   UNL     1      45.116   8.502  12.148  0.00  0.00    +0.000 A 
ATOM      3  C   UNL     1      46.183   8.429  13.029  0.00  0.00    +0.000 A 
ATOM      4  C   UNL     1      46.935   7.254  13.103  0.00  0.00    +0.000 A 
ATOM      5  C   UNL     1      46.573   6.160  12.295  0.00  0.00    +0.000 A 
ATOM      6  C   UNL     1      45.486   6.217  11.396  0.00  0.00    +0.000 A 
ATOM      7  C   UNL     1      44.765   7.420  11.343  0.00  0.00    +0.000 A 
ENDROOT
BRANCH   6   8
ATOM      8  C   UNL     1      45.133   5.062  10.538  0.00  0.00    +0.000 A 
ATOM      9  C   UNL     1      45.555   4.962   9.202  0.00  0.00    +0.000 A 
ATOM     10  C   UNL     1      45.212   3.856   8.425  0.00  0.00    +0.000 A 
ATOM     11  C   UNL     1      44.455   2.854   9.004  0.00  0.00    +0.000 A 
ATOM     12  N   UNL     1      44.022   2.894  10.278  0.00  0.00    +0.000 NA
ATOM     13  C   UNL     1      44.364   3.990  11.003  0.00  0.00    +0.000 A 
ENDBRANCH   6   8
BRANCH   4  14
ATOM     14  C   UNL     1      48.115   7.155  14.038  0.00  0.00    +0.000 C 
BRANCH  14  15
ATOM     15  O   UNL     1      48.378   5.780  14.310  0.00  0.00    +0.000 OA
BRANCH  15  16
ATOM     16  C   UNL     1      48.088   5.348  15.574  0.00  0.00    +0.000 A 
ATOM     17  C   UNL     1      48.581   5.880  16.764  0.00  0.00    +0.000 A 
ATOM     18  C   UNL     1      48.188   5.328  17.983  0.00  0.00    +0.000 A 
ATOM     19  C   UNL     1      47.312   4.257  17.973  0.00  0.00    +0.000 A 
ATOM     20  N   UNL     1      46.814   3.710  16.845  0.00  0.00    +0.000 NA
ATOM     21  C   UNL     1      47.217   4.267  15.676  0.00  0.00    +0.000 A 
ENDBRANCH  15  16
ENDBRANCH  14  15
ENDBRANCH   4  14
TORSDOF 4
ENDMDL
MODEL 9
REMARK VINA RESULT:    -6.119      2.708      6.810
REMARK INTER + INTRA:          -8.141
REMARK INTER:                  -7.599
REMARK INTRA:                  -0.542
REMARK UNBOUND:                -0.592
REMARK  Name = 
REMARK  4 active torsions:
REMARK  status: ('A' for Active; 'I' for Inactive)
REMARK    1  A    between atoms: C_4  and  C_5
REMARK    2  A    between atoms: C_5  and  O_6
REMARK    3  A    between atoms: O_6  and  C_7
REMARK    4  A    between atoms: C_14  and  C_15
REMARK                            x       y       z     vdW  Elec       q    Type
REMARK                         _______ _______ _______ _____ _____    ______ ____
ROOT
ATOM      1  F   UNL     1      41.703   5.423  11.800  0.00  0.00    +0.000 F 
ATOM      2  C   UNL     1      43.018   5.460  11.542  0.00  0.00    +0.000 A 
ATOM      3  C   UNL     1      43.828   6.322  12.265  0.00  0.00    +0.000 A 
ATOM      4  C   UNL     1      45.195   6.381  11.984  0.00  0.00    +0.000 A 
ATOM      5  C   UNL     1      45.722   5.541  10.984  0.00  0.00    +0.000 A 
ATOM      6  C   UNL     1      44.911   4.654  10.243  0.00  0.00    +0.000 A 
ATOM      7  C   UNL     1      43.541   4.636  10.548  0.00  0.00    +0.000 A 
ENDROOT
BRANCH   6   8
ATOM      8  C   UNL     1      45.481   3.793   9.181  0.00  0.00    +0.000 A 
ATOM      9  C   UNL     1      46.096   4.323   8.034  0.00  0.00    +0.000 A 
ATOM     10  C   UNL     1      46.631   3.483   7.057  0.00  0.00    +0.000 A 
ATOM     11  C   UNL     1      46.550   2.116   7.248  0.00  0.00    +0.000 A 
ATOM     12  N   UNL     1      45.973   1.551   8.326  0.00  0.00    +0.000 NA
ATOM     13  C   UNL     1      45.452   2.397   9.251  0.00  0.00    +0.000 A 
ENDBRANCH   6   8
BRANCH   4  14
ATOM     14  C   UNL     1      46.095   7.325  12.740  0.00  0.00    +0.000 C 
BRANCH  14  15
ATOM     15  O   UNL     1      46.864   8.081  11.807  0.00  0.00    +0.000 OA
BRANCH  15  16
ATOM     16  C   UNL     1      46.744   9.441  11.887  0.00  0.00    +0.000 A 
ATOM     17  C   UNL     1      47.774  10.350  12.115  0.00  0.00    +0.000 A 
ATOM     18  C   UNL     1      47.493  11.715  12.168  0.00  0.00    +0.000 A 
ATOM     19  C   UNL     1      46.184  12.128  11.989  0.00  0.00    +0.000 A 
ATOM     20  N   UNL     1      45.157  11.281  11.769  0.00  0.00    +0.000 NA
ATOM     21  C   UNL     1      45.463   9.961  11.727  0.00  0.00    +0.000 A 
ENDBRANCH  15  16
ENDBRANCH  14  15
ENDBRANCH   4  14
TORSDOF 4
ENDMDL
