MODEL 1
REMARK VINA RESULT:    -7.942      0.000      0.000
REMARK INTER + INTRA:         -12.307
REMARK INTER:                 -11.192
REMARK INTRA:                  -1.115
REMARK UNBOUND:                -1.115
REMARK  Name = 
REMARK  9 active torsions:
REMARK  status: ('A' for Active; 'I' for Inactive)
REMARK    1  A    between atoms: C_1  and  N_2
REMARK    2  A    between atoms: C_4  and  O_5
REMARK    3  A    between atoms: O_5  and  C_6
REMARK    4  A    between atoms: C_10  and  C_11
REMARK    5  A    between atoms: C_11  and  C_12
REMARK    6  A    between atoms: C_12  and  N_13
REMARK    7  A    between atoms: N_13  and  C_14
REMARK    8  A    between atoms: N_13  and  C_15
REMARK    9  A    between atoms: C_19  and  C_20
REMARK                            x       y       z     vdW  Elec       q    Type
REMARK                         _______ _______ _______ _____ _____    ______ ____
ROOT
ATOM      1  C   UNL     1      43.031   4.840  11.218  0.00  0.00    +0.000 C 
ENDROOT
BRANCH   1   2
ATOM      2  N   UNL     1      43.591   3.592  10.679  0.00  0.00    +0.000 N 
ATOM      3  C   UNL     1      43.498   2.418  11.550  0.00  0.00    +0.000 C 
BRANCH   2   4
ATOM      4  C   UNL     1      44.586   3.618   9.694  0.00  0.00    +0.000 A 
ATOM      5  C   UNL     1      45.085   4.816   9.147  0.00  0.00    +0.000 A 
ATOM      6  C   UNL     1      46.081   4.834   8.161  0.00  0.00    +0.000 A 
ATOM      7  C   UNL     1      46.619   3.646   7.696  0.00  0.00    +0.000 A 
ATOM      8  C   UNL     1      46.154   2.443   8.216  0.00  0.00    +0.000 A 
ATOM      9  C   UNL     1      45.128   2.433   9.173  0.00  0.00    +0.000 A 
BRANCH   8  10
ATOM     10  C   UNL     1      46.766   1.172   7.731  0.00  0.00    +0.000 C 
ATOM     11  N   UNL     1      47.794   1.274   6.833  0.00  0.00    +0.000 N 
ATOM     12  O   UNL     1      46.341   0.075   8.078  0.00  0.00    +0.000 OA
ATOM     13  H   UNL     1      47.995   2.128   6.334  0.00  0.00    +0.000 HD
ATOM     14  H   UNL     1      48.119   0.408   6.427  0.00  0.00    +0.000 HD
ENDBRANCH   8  10
ENDBRANCH   2   4
ENDBRANCH   1   2
BRANCH   1  15
ATOM     15  C   UNL     1      43.377   5.026  12.707  0.00  0.00    +0.000 C 
BRANCH  15  20
ATOM     16  C   UNL     1      46.976   4.880  13.965  0.00  0.00    +0.000 A 
ATOM     17  C   UNL     1      47.526   6.033  13.410  0.00  0.00    +0.000 A 
ATOM     18  C   UNL     1      46.723   6.896  12.669  0.00  0.00    +0.000 A 
ATOM     19  C   UNL     1      45.376   6.599  12.461  0.00  0.00    +0.000 A 
ATOM     20  C   UNL     1      44.820   5.412  12.959  0.00  0.00    +0.000 A 
ATOM     21  C   UNL     1      45.630   4.574  13.741  0.00  0.00    +0.000 A 
BRANCH  16  22
ATOM     22  O   UNL     1      47.673   3.963  14.711  0.00  0.00    +0.000 OA
BRANCH  22  26
ATOM     23  C   UNL     1      50.135   4.014  18.344  0.00  0.00    +0.000 C 
ATOM     24  N   UNL     1      49.539   3.999  17.015  0.00  0.00    +0.000 NA
ATOM     25  C   UNL     1      48.529   5.071  16.875  0.00  0.00    +0.000 C 
ATOM     26  C   UNL     1      47.607   4.049  16.157  0.00  0.00    +0.000 C 
ATOM     27  C   UNL     1      48.453   2.996  16.921  0.00  0.00    +0.000 C 
ENDBRANCH  22  26
ENDBRANCH  16  22
ENDBRANCH  15  20
ENDBRANCH   1  15
TORSDOF 7
ENDMDL
MODEL 2
REMARK VINA RESULT:    -6.496      1.703      2.454
REMARK INTER + INTRA:         -10.270
REMARK INTER:                  -9.666
REMARK INTRA:                  -0.604
REMARK UNBOUND:                -1.115
REMARK  Name = 
REMARK  9 active torsions:
REMARK  status: ('A' for Active; 'I' for Inactive)
REMARK    1  A    between atoms: C_1  and  N_2
REMARK    2  A    between atoms: C_4  and  O_5
REMARK    3  A    between atoms: O_5  and  C_6
REMARK    4  A    between atoms: C_10  and  C_11
REMARK    5  A    between atoms: C_11  and  C_12
REMARK    6  A    between atoms: C_12  and  N_13
REMARK    7  A    between atoms: N_13  and  C_14
REMARK    8  A    between atoms: N_13  and  C_15
REMARK    9  A    between atoms: C_19  and  C_20
REMARK                            x       y       z     vdW  Elec       q    Type
REMARK                         _______ _______ _______ _____ _____    ______ ____
ROOT
ATOM      1  C   UNL     1      45.825   5.905  10.264  0.00  0.00    +0.000 C 
ENDROOT
BRANCH   1   2
ATOM      2  N   UNL     1      44.839   4.908   9.820  0.00  0.00    +0.000 N 
ATOM      3  C   UNL     1      43.573   4.884  10.557  0.00  0.00    +0.000 C 
BRANCH   2   4
ATOM      4  C   UNL     1      45.244   3.749   9.146  0.00  0.00    +0.000 A 
ATOM      5  C   UNL     1      44.830   2.460   9.533  0.00  0.00    +0.000 A 
ATOM      6  C   UNL     1      45.240   1.304   8.855  0.00  0.00    +0.000 A 
ATOM      7  C   UNL     1      46.076   1.405   7.754  0.00  0.00    +0.000 A 
ATOM      8  C   UNL     1      46.502   2.663   7.341  0.00  0.00    +0.000 A 
ATOM      9  C   UNL     1      46.119   3.810   8.050  0.00  0.00    +0.000 A 
BRANCH   8  10
ATOM     10  C   UNL     1      47.373   2.759   6.134  0.00  0.00    +0.000 C 
ATOM     11  N   UNL     1      48.713   2.542   6.310  0.00  0.00    +0.000 N 
ATOM     12  O   UNL     1      46.925   3.068   5.035  0.00  0.00    +0.000 OA
ATOM     13  H   UNL     1      49.148   2.543   7.220  0.00  0.00    +0.000 HD
ATOM     14  H   UNL     1      49.303   2.724   5.509  0.00  0.00    +0.000 HD
ENDBRANCH   8  10
ENDBRANCH   2   4
ENDBRANCH   1   2
BRANCH   1  15
ATOM     15  C   UNL     1      45.775   6.120  11.788  0.00  0.00    +0.000 C 
BRANCH  15  20
ATOM     16  C   UNL     1      48.787   6.798  14.029  0.00  0.00    +0.000 A 
ATOM     17  C   UNL     1      49.354   7.917  13.424  0.00  0.00    +0.000 A 
ATOM     18  C   UNL     1      48.737   8.494  12.317  0.00  0.00    +0.000 A 
ATOM     19  C   UNL     1      47.565   7.944  11.800  0.00  0.00    +0.000 A 
ATOM     20  C   UNL     1      47.014   6.781  12.356  0.00  0.00    +0.000 A 
ATOM     21  C   UNL     1      47.623   6.236  13.497  0.00  0.00    +0.000 A 
BRANCH  16  22
ATOM     22  O   UNL     1      49.310   6.151  15.120  0.00  0.00    +0.000 OA
BRANCH  22  26
ATOM     23  C   UNL     1      49.084   4.399  19.138  0.00  0.00    +0.000 C 
ATOM     24  N   UNL     1      49.363   4.833  17.776  0.00  0.00    +0.000 NA
ATOM     25  C   UNL     1      49.416   6.309  17.691  0.00  0.00    +0.000 C 
ATOM     26  C   UNL     1      48.592   6.220  16.378  0.00  0.00    +0.000 C 
ATOM     27  C   UNL     1      48.132   4.853  16.952  0.00  0.00    +0.000 C 
ENDBRANCH  22  26
ENDBRANCH  16  22
ENDBRANCH  15  20
ENDBRANCH   1  15
TORSDOF 7
ENDMDL
MODEL 3
REMARK VINA RESULT:    -6.473      3.236      7.535
REMARK INTER + INTRA:         -10.237
REMARK INTER:                  -9.289
REMARK INTRA:                  -0.949
REMARK UNBOUND:                -1.115
REMARK  Name = 
REMARK  9 active torsions:
REMARK  status: ('A' for Active; 'I' for Inactive)
REMARK    1  A    between atoms: C_1  and  N_2
REMARK    2  A    between atoms: C_4  and  O_5
REMARK    3  A    between atoms: O_5  and  C_6
REMARK    4  A    between atoms: C_10  and  C_11
REMARK    5  A    between atoms: C_11  and  C_12
REMARK    6  A    between atoms: C_12  and  N_13
REMARK    7  A    between atoms: N_13  and  C_14
REMARK    8  A    between atoms: N_13  and  C_15
REMARK    9  A    between atoms: C_19  and  C_20
REMARK                            x       y       z     vdW  Elec       q    Type
REMARK                         _______ _______ _______ _____ _____    ______ ____
ROOT
ATOM      1  C   UNL     1      47.759   6.249  12.894  0.00  0.00    +0.000 C 
ENDROOT
BRANCH   1   2
ATOM      2  N   UNL     1      47.998   7.617  13.379  0.00  0.00    +0.000 N 
ATOM      3  C   UNL     1      48.301   7.747  14.807  0.00  0.00    +0.000 C 
BRANCH   2   4
ATOM      4  C   UNL     1      47.465   8.721  12.704  0.00  0.00    +0.000 A 
ATOM      5  C   UNL     1      48.268   9.740  12.156  0.00  0.00    +0.000 A 
ATOM      6  C   UNL     1      47.727  10.843  11.483  0.00  0.00    +0.000 A 
ATOM      7  C   UNL     1      46.355  10.956  11.326  0.00  0.00    +0.000 A 
ATOM      8  C   UNL     1      45.530   9.967  11.851  0.00  0.00    +0.000 A 
ATOM      9  C   UNL     1      46.079   8.888  12.559  0.00  0.00    +0.000 A 
BRANCH   8  10
ATOM     10  C   UNL     1      44.057  10.084  11.646  0.00  0.00    +0.000 C 
ATOM     11  N   UNL     1      43.453   9.125  10.880  0.00  0.00    +0.000 N 
ATOM     12  O   UNL     1      43.413  11.024  12.100  0.00  0.00    +0.000 OA
ATOM     13  H   UNL     1      43.974   8.497  10.286  0.00  0.00    +0.000 HD
ATOM     14  H   UNL     1      42.480   9.281  10.655  0.00  0.00    +0.000 HD
ENDBRANCH   8  10
ENDBRANCH   2   4
ENDBRANCH   1   2
BRANCH   1  15
ATOM     15  C   UNL     1      46.556   5.595  13.597  0.00  0.00    +0.000 C 
BRANCH  15  20
ATOM     16  C   UNL     1      44.735   4.688  10.369  0.00  0.00    +0.000 A 
ATOM     17  C   UNL     1      43.495   4.265  10.843  0.00  0.00    +0.000 A 
ATOM     18  C   UNL     1      43.219   4.320  12.206  0.00  0.00    +0.000 A 
ATOM     19  C   UNL     1      44.186   4.777  13.102  0.00  0.00    +0.000 A 
ATOM     20  C   UNL     1      45.460   5.148  12.650  0.00  0.00    +0.000 A 
ATOM     21  C   UNL     1      45.709   5.128  11.269  0.00  0.00    +0.000 A 
BRANCH  16  22
ATOM     22  O   UNL     1      45.111   4.677   9.050  0.00  0.00    +0.000 OA
BRANCH  22  26
ATOM     23  C   UNL     1      47.056   1.162   7.282  0.00  0.00    +0.000 C 
ATOM     24  N   UNL     1      46.637   2.375   7.971  0.00  0.00    +0.000 NA
ATOM     25  C   UNL     1      45.424   2.133   8.782  0.00  0.00    +0.000 C 
ATOM     26  C   UNL     1      44.861   3.484   8.265  0.00  0.00    +0.000 C 
ATOM     27  C   UNL     1      45.840   3.253   7.083  0.00  0.00    +0.000 C 
ENDBRANCH  22  26
ENDBRANCH  16  22
ENDBRANCH  15  20
ENDBRANCH   1  15
TORSDOF 7
ENDMDL
MODEL 4
REMARK VINA RESULT:    -6.267      3.119      7.898
REMARK INTER + INTRA:          -9.947
REMARK INTER:                  -8.793
REMARK INTRA:                  -1.155
REMARK UNBOUND:                -1.115
REMARK  Name = 
REMARK  9 active torsions:
REMARK  status: ('A' for Active; 'I' for Inactive)
REMARK    1  A    between atoms: C_1  and  N_2
REMARK    2  A    between atoms: C_4  and  O_5
REMARK    3  A    between atoms: O_5  and  C_6
REMARK    4  A    between atoms: C_10  and  C_11
REMARK    5  A    between atoms: C_11  and  C_12
REMARK    6  A    between atoms: C_12  and  N_13
REMARK    7  A    between atoms: N_13  and  C_14
REMARK    8  A    between atoms: N_13  and  C_15
REMARK    9  A    between atoms: C_19  and  C_20
REMARK                            x       y       z     vdW  Elec       q    Type
REMARK                         _______ _______ _______ _____ _____    ______ ____
ROOT
ATOM      1  C   UNL     1      49.650   8.026  16.240  0.00  0.00    +0.000 C 
ENDROOT
BRANCH   1   2
ATOM      2  N   UNL     1      49.989   7.166  17.384  0.00  0.00    +0.000 N 
ATOM      3  C   UNL     1      51.333   7.340  17.940  0.00  0.00    +0.000 C 
BRANCH   2   4
ATOM      4  C   UNL     1      49.333   5.945  17.583  0.00  0.00    +0.000 A 
ATOM      5  C   UNL     1      48.034   5.857  18.121  0.00  0.00    +0.000 A 
ATOM      6  C   UNL     1      47.385   4.631  18.318  0.00  0.00    +0.000 A 
ATOM      7  C   UNL     1      48.016   3.447  17.972  0.00  0.00    +0.000 A 
ATOM      8  C   UNL     1      49.298   3.496  17.435  0.00  0.00    +0.000 A 
ATOM      9  C   UNL     1      49.956   4.725  17.278  0.00  0.00    +0.000 A 
BRANCH   8  10
ATOM     10  C   UNL     1      49.952   2.217  17.035  0.00  0.00    +0.000 C 
ATOM     11  N   UNL     1      50.920   1.721  17.866  0.00  0.00    +0.000 N 
ATOM     12  O   UNL     1      49.678   1.651  15.982  0.00  0.00    +0.000 OA
ATOM     13  H   UNL     1      51.350   2.276  18.590  0.00  0.00    +0.000 HD
ATOM     14  H   UNL     1      51.432   0.919  17.526  0.00  0.00    +0.000 HD
ENDBRANCH   8  10
ENDBRANCH   2   4
ENDBRANCH   1   2
BRANCH   1  15
ATOM     15  C   UNL     1      50.264   7.503  14.929  0.00  0.00    +0.000 C 
BRANCH  15  20
ATOM     16  C   UNL     1      47.131   6.325  13.098  0.00  0.00    +0.000 A 
ATOM     17  C   UNL     1      47.305   6.885  11.834  0.00  0.00    +0.000 A 
ATOM     18  C   UNL     1      48.463   7.603  11.547  0.00  0.00    +0.000 A 
ATOM     19  C   UNL     1      49.440   7.782  12.526  0.00  0.00    +0.000 A 
ATOM     20  C   UNL     1      49.254   7.280  13.822  0.00  0.00    +0.000 A 
ATOM     21  C   UNL     1      48.102   6.522  14.084  0.00  0.00    +0.000 A 
BRANCH  16  22
ATOM     22  O   UNL     1      46.033   5.601  13.487  0.00  0.00    +0.000 OA
BRANCH  22  26
ATOM     23  C   UNL     1      43.321   2.534  11.905  0.00  0.00    +0.000 C 
ATOM     24  N   UNL     1      44.290   3.373  12.596  0.00  0.00    +0.000 NA
ATOM     25  C   UNL     1      43.682   4.658  13.005  0.00  0.00    +0.000 C 
ATOM     26  C   UNL     1      44.973   5.374  12.524  0.00  0.00    +0.000 C 
ATOM     27  C   UNL     1      45.146   4.111  11.637  0.00  0.00    +0.000 C 
ENDBRANCH  22  26
ENDBRANCH  16  22
ENDBRANCH  15  20
ENDBRANCH   1  15
TORSDOF 7
ENDMDL
MODEL 5
REMARK VINA RESULT:    -6.188      2.412      7.588
REMARK INTER + INTRA:          -9.836
REMARK INTER:                  -8.373
REMARK INTRA:                  -1.462
REMARK UNBOUND:                -1.115
REMARK  Name = 
REMARK  9 active torsions:
REMARK  status: ('A' for Active; 'I' for Inactive)
REMARK    1  A    between atoms: C_1  and  N_2
REMARK    2  A    between atoms: C_4  and  O_5
REMARK    3  A    between atoms: O_5  and  C_6
REMARK    4  A    between atoms: C_10  and  C_11
REMARK    5  A    between atoms: C_11  and  C_12
REMARK    6  A    between atoms: C_12  and  N_13
REMARK    7  A    between atoms: N_13  and  C_14
REMARK    8  A    between atoms: N_13  and  C_15
REMARK    9  A    between atoms: C_19  and  C_20
REMARK                            x       y       z     vdW  Elec       q    Type
REMARK                         _______ _______ _______ _____ _____    ______ ____
ROOT
ATOM      1  C   UNL     1      50.133   7.975  13.035  0.00  0.00    +0.000 C 
ENDROOT
BRANCH   1   2
ATOM      2  N   UNL     1      49.624   8.232  14.391  0.00  0.00    +0.000 N 
ATOM      3  C   UNL     1      49.811   9.594  14.898  0.00  0.00    +0.000 C 
BRANCH   2   4
ATOM      4  C   UNL     1      49.477   7.188  15.312  0.00  0.00    +0.000 A 
ATOM      5  C   UNL     1      50.340   7.015  16.411  0.00  0.00    +0.000 A 
ATOM      6  C   UNL     1      50.186   5.967  17.329  0.00  0.00    +0.000 A 
ATOM      7  C   UNL     1      49.151   5.059  17.179  0.00  0.00    +0.000 A 
ATOM      8  C   UNL     1      48.276   5.201  16.108  0.00  0.00    +0.000 A 
ATOM      9  C   UNL     1      48.461   6.230  15.172  0.00  0.00    +0.000 A 
BRANCH   8  10
ATOM     10  C   UNL     1      47.145   4.238  15.978  0.00  0.00    +0.000 C 
ATOM     11  N   UNL     1      46.519   4.165  14.762  0.00  0.00    +0.000 N 
ATOM     12  O   UNL     1      46.751   3.570  16.928  0.00  0.00    +0.000 OA
ATOM     13  H   UNL     1      46.639   4.868  14.048  0.00  0.00    +0.000 HD
ATOM     14  H   UNL     1      45.686   3.596  14.723  0.00  0.00    +0.000 HD
ENDBRANCH   8  10
ENDBRANCH   2   4
ENDBRANCH   1   2
BRANCH   1  15
ATOM     15  C   UNL     1      49.199   8.547  11.954  0.00  0.00    +0.000 C 
BRANCH  15  20
ATOM     16  C   UNL     1      46.021   6.441  12.106  0.00  0.00    +0.000 A 
ATOM     17  C   UNL     1      45.073   7.374  12.517  0.00  0.00    +0.000 A 
ATOM     18  C   UNL     1      45.442   8.705  12.697  0.00  0.00    +0.000 A 
ATOM     19  C   UNL     1      46.762   9.103  12.488  0.00  0.00    +0.000 A 
ATOM     20  C   UNL     1      47.744   8.166  12.135  0.00  0.00    +0.000 A 
ATOM     21  C   UNL     1      47.348   6.838  11.915  0.00  0.00    +0.000 A 
BRANCH  16  22
ATOM     22  O   UNL     1      45.767   5.109  11.899  0.00  0.00    +0.000 OA
BRANCH  22  26
ATOM     23  C   UNL     1      44.573   2.160   8.876  0.00  0.00    +0.000 C 
ATOM     24  N   UNL     1      45.174   2.992   9.909  0.00  0.00    +0.000 NA
ATOM     25  C   UNL     1      44.210   3.262  10.999  0.00  0.00    +0.000 C 
ATOM     26  C   UNL     1      44.692   4.738  11.001  0.00  0.00    +0.000 C 
ATOM     27  C   UNL     1      45.126   4.427   9.543  0.00  0.00    +0.000 C 
ENDBRANCH  22  26
ENDBRANCH  16  22
ENDBRANCH  15  20
ENDBRANCH   1  15
TORSDOF 7
ENDMDL
MODEL 6
REMARK VINA RESULT:    -6.156      3.475      7.999
REMARK INTER + INTRA:          -9.790
REMARK INTER:                  -8.110
REMARK INTRA:                  -1.680
REMARK UNBOUND:                -1.115
REMARK  Name = 
REMARK  9 active torsions:
REMARK  status: ('A' for Active; 'I' for Inactive)
REMARK    1  A    between atoms: C_1  and  N_2
REMARK    2  A    between atoms: C_4  and  O_5
REMARK    3  A    between atoms: O_5  and  C_6
REMARK    4  A    between atoms: C_10  and  C_11
REMARK    5  A    between atoms: C_11  and  C_12
REMARK    6  A    between atoms: C_12  and  N_13
REMARK    7  A    between atoms: N_13  and  C_14
REMARK    8  A    between atoms: N_13  and  C_15
REMARK    9  A    between atoms: C_19  and  C_20
REMARK                            x       y       z     vdW  Elec       q    Type
REMARK                         _______ _______ _______ _____ _____    ______ ____
ROOT
ATOM      1  C   UNL     1      49.986   8.296  16.593  0.00  0.00    +0.000 C 
ENDROOT
BRANCH   1   2
ATOM      2  N   UNL     1      50.515   7.344  17.581  0.00  0.00    +0.000 N 
ATOM      3  C   UNL     1      51.757   7.738  18.250  0.00  0.00    +0.000 C 
BRANCH   2   4
ATOM      4  C   UNL     1      50.194   5.983  17.509  0.00  0.00    +0.000 A 
ATOM      5  C   UNL     1      51.118   4.966  17.820  0.00  0.00    +0.000 A 
ATOM      6  C   UNL     1      50.790   3.606  17.744  0.00  0.00    +0.000 A 
ATOM      7  C   UNL     1      49.516   3.218  17.362  0.00  0.00    +0.000 A 
ATOM      8  C   UNL     1      48.577   4.195  17.051  0.00  0.00    +0.000 A 
ATOM      9  C   UNL     1      48.926   5.553  17.091  0.00  0.00    +0.000 A 
BRANCH   8  10
ATOM     10  C   UNL     1      47.199   3.765  16.675  0.00  0.00    +0.000 C 
ATOM     11  N   UNL     1      46.659   4.312  15.542  0.00  0.00    +0.000 N 
ATOM     12  O   UNL     1      46.549   2.993  17.370  0.00  0.00    +0.000 OA
ATOM     13  H   UNL     1      47.049   5.129  15.096  0.00  0.00    +0.000 HD
ATOM     14  H   UNL     1      45.687   4.101  15.364  0.00  0.00    +0.000 HD
ENDBRANCH   8  10
ENDBRANCH   2   4
ENDBRANCH   1   2
BRANCH   1  15
ATOM     15  C   UNL     1      50.821   8.301  15.299  0.00  0.00    +0.000 C 
BRANCH  15  20
ATOM     16  C   UNL     1      48.295   6.777  12.880  0.00  0.00    +0.000 A 
ATOM     17  C   UNL     1      48.419   7.607  11.768  0.00  0.00    +0.000 A 
ATOM     18  C   UNL     1      49.359   8.635  11.772  0.00  0.00    +0.000 A 
ATOM     19  C   UNL     1      50.162   8.849  12.892  0.00  0.00    +0.000 A 
ATOM     20  C   UNL     1      50.008   8.063  14.043  0.00  0.00    +0.000 A 
ATOM     21  C   UNL     1      49.087   7.005  14.008  0.00  0.00    +0.000 A 
BRANCH  16  22
ATOM     22  O   UNL     1      47.405   5.738  12.983  0.00  0.00    +0.000 OA
BRANCH  22  26
ATOM     23  C   UNL     1      43.092   4.922  13.017  0.00  0.00    +0.000 C 
ATOM     24  N   UNL     1      44.512   5.142  13.254  0.00  0.00    +0.000 NA
ATOM     25  C   UNL     1      44.942   6.453  12.720  0.00  0.00    +0.000 C 
ATOM     26  C   UNL     1      46.213   5.760  12.158  0.00  0.00    +0.000 C 
ATOM     27  C   UNL     1      45.342   4.477  12.222  0.00  0.00    +0.000 C 
ENDBRANCH  22  26
ENDBRANCH  16  22
ENDBRANCH  15  20
ENDBRANCH   1  15
TORSDOF 7
ENDMDL
MODEL 7
REMARK VINA RESULT:    -6.124      2.490      3.337
REMARK INTER + INTRA:          -9.745
REMARK INTER:                  -8.997
REMARK INTRA:                  -0.748
REMARK UNBOUND:                -1.115
REMARK  Name = 
REMARK  9 active torsions:
REMARK  status: ('A' for Active; 'I' for Inactive)
REMARK    1  A    between atoms: C_1  and  N_2
REMARK    2  A    between atoms: C_4  and  O_5
REMARK    3  A    between atoms: O_5  and  C_6
REMARK    4  A    between atoms: C_10  and  C_11
REMARK    5  A    between atoms: C_11  and  C_12
REMARK    6  A    between atoms: C_12  and  N_13
REMARK    7  A    between atoms: N_13  and  C_14
REMARK    8  A    between atoms: N_13  and  C_15
REMARK    9  A    between atoms: C_19  and  C_20
REMARK                            x       y       z     vdW  Elec       q    Type
REMARK                         _______ _______ _______ _____ _____    ______ ____
ROOT
ATOM      1  C   UNL     1      45.793   5.929  10.253  0.00  0.00    +0.000 C 
ENDROOT
BRANCH   1   2
ATOM      2  N   UNL     1      44.816   4.930   9.792  0.00  0.00    +0.000 N 
ATOM      3  C   UNL     1      43.536   4.908  10.506  0.00  0.00    +0.000 C 
BRANCH   2   4
ATOM      4  C   UNL     1      45.234   3.770   9.129  0.00  0.00    +0.000 A 
ATOM      5  C   UNL     1      44.823   2.481   9.519  0.00  0.00    +0.000 A 
ATOM      6  C   UNL     1      45.246   1.324   8.851  0.00  0.00    +0.000 A 
ATOM      7  C   UNL     1      46.092   1.423   7.758  0.00  0.00    +0.000 A 
ATOM      8  C   UNL     1      46.515   2.680   7.342  0.00  0.00    +0.000 A 
ATOM      9  C   UNL     1      46.118   3.830   8.042  0.00  0.00    +0.000 A 
BRANCH   8  10
ATOM     10  C   UNL     1      47.397   2.775   6.143  0.00  0.00    +0.000 C 
ATOM     11  N   UNL     1      48.737   2.570   6.334  0.00  0.00    +0.000 N 
ATOM     12  O   UNL     1      46.958   3.072   5.038  0.00  0.00    +0.000 OA
ATOM     13  H   UNL     1      49.163   2.582   7.248  0.00  0.00    +0.000 HD
ATOM     14  H   UNL     1      49.333   2.751   5.538  0.00  0.00    +0.000 HD
ENDBRANCH   8  10
ENDBRANCH   2   4
ENDBRANCH   1   2
BRANCH   1  15
ATOM     15  C   UNL     1      45.398   6.531  11.614  0.00  0.00    +0.000 C 
BRANCH  15  20
ATOM     16  C   UNL     1      48.215   6.211  14.166  0.00  0.00    +0.000 A 
ATOM     17  C   UNL     1      47.771   5.156  14.960  0.00  0.00    +0.000 A 
ATOM     18  C   UNL     1      46.581   4.505  14.644  0.00  0.00    +0.000 A 
ATOM     19  C   UNL     1      45.823   4.917  13.549  0.00  0.00    +0.000 A 
ATOM     20  C   UNL     1      46.223   6.017  12.776  0.00  0.00    +0.000 A 
ATOM     21  C   UNL     1      47.445   6.635  13.080  0.00  0.00    +0.000 A 
BRANCH  16  22
ATOM     22  O   UNL     1      49.369   6.921  14.385  0.00  0.00    +0.000 OA
BRANCH  22  26
ATOM     23  C   UNL     1      49.890  10.275  17.167  0.00  0.00    +0.000 C 
ATOM     24  N   UNL     1      49.806   9.020  16.434  0.00  0.00    +0.000 NA
ATOM     25  C   UNL     1      50.484   9.125  15.123  0.00  0.00    +0.000 C 
ATOM     26  C   UNL     1      49.287   8.364  14.491  0.00  0.00    +0.000 C 
ATOM     27  C   UNL     1      48.510   8.893  15.727  0.00  0.00    +0.000 C 
ENDBRANCH  22  26
ENDBRANCH  16  22
ENDBRANCH  15  20
ENDBRANCH   1  15
TORSDOF 7
ENDMDL
MODEL 8
REMARK VINA RESULT:    -6.026      1.978      8.129
REMARK INTER + INTRA:          -9.607
REMARK INTER:                  -9.112
REMARK INTRA:                  -0.495
REMARK UNBOUND:                -1.115
REMARK  Name = 
REMARK  9 active torsions:
REMARK  status: ('A' for Active; 'I' for Inactive)
REMARK    1  A    between atoms: C_1  and  N_2
REMARK    2  A    between atoms: C_4  and  O_5
REMARK    3  A    between atoms: O_5  and  C_6
REMARK    4  A    between atoms: C_10  and  C_11
REMARK    5  A    between atoms: C_11  and  C_12
REMARK    6  A    between atoms: C_12  and  N_13
REMARK    7  A    between atoms: N_13  and  C_14
REMARK    8  A    between atoms: N_13  and  C_15
REMARK    9  A    between atoms: C_19  and  C_20
REMARK                            x       y       z     vdW  Elec       q    Type
REMARK                         _______ _______ _______ _____ _____    ______ ____
ROOT
ATOM      1  C   UNL     1      46.845   6.685  13.644  0.00  0.00    +0.000 C 
ENDROOT
BRANCH   1   2
ATOM      2  N   UNL     1      48.200   6.926  14.161  0.00  0.00    +0.000 N 
ATOM      3  C   UNL     1      49.240   7.154  13.154  0.00  0.00    +0.000 C 
BRANCH   2   4
ATOM      4  C   UNL     1      48.581   6.453  15.422  0.00  0.00    +0.000 A 
ATOM      5  C   UNL     1      49.540   7.104  16.223  0.00  0.00    +0.000 A 
ATOM      6  C   UNL     1      49.917   6.624  17.484  0.00  0.00    +0.000 A 
ATOM      7  C   UNL     1      49.334   5.474  17.992  0.00  0.00    +0.000 A 
ATOM      8  C   UNL     1      48.380   4.806  17.231  0.00  0.00    +0.000 A 
ATOM      9  C   UNL     1      48.039   5.272  15.953  0.00  0.00    +0.000 A 
BRANCH   8  10
ATOM     10  C   UNL     1      47.736   3.589  17.804  0.00  0.00    +0.000 C 
ATOM     11  N   UNL     1      48.425   2.913  18.774  0.00  0.00    +0.000 N 
ATOM     12  O   UNL     1      46.657   3.174  17.395  0.00  0.00    +0.000 OA
ATOM     13  H   UNL     1      49.407   3.067  18.949  0.00  0.00    +0.000 HD
ATOM     14  H   UNL     1      48.031   2.030  19.069  0.00  0.00    +0.000 HD
ENDBRANCH   8  10
ENDBRANCH   2   4
ENDBRANCH   1   2
BRANCH   1  15
ATOM     15  C   UNL     1      46.715   7.094  12.165  0.00  0.00    +0.000 C 
BRANCH  15  20
ATOM     16  C   UNL     1      45.180   5.009   9.363  0.00  0.00    +0.000 A 
ATOM     17  C   UNL     1      43.945   4.659   9.903  0.00  0.00    +0.000 A 
ATOM     18  C   UNL     1      43.576   5.139  11.157  0.00  0.00    +0.000 A 
ATOM     19  C   UNL     1      44.447   5.951  11.883  0.00  0.00    +0.000 A 
ATOM     20  C   UNL     1      45.719   6.263  11.383  0.00  0.00    +0.000 A 
ATOM     21  C   UNL     1      46.059   5.808  10.099  0.00  0.00    +0.000 A 
BRANCH  16  22
ATOM     22  O   UNL     1      45.642   4.595   8.139  0.00  0.00    +0.000 OA
BRANCH  22  26
ATOM     23  C   UNL     1      47.097   0.523   7.388  0.00  0.00    +0.000 C 
ATOM     24  N   UNL     1      46.843   1.913   7.739  0.00  0.00    +0.000 NA
ATOM     25  C   UNL     1      45.586   2.044   8.509  0.00  0.00    +0.000 C 
ATOM     26  C   UNL     1      45.241   3.291   7.650  0.00  0.00    +0.000 C 
ATOM     27  C   UNL     1      46.206   2.646   6.620  0.00  0.00    +0.000 C 
ENDBRANCH  22  26
ENDBRANCH  16  22
ENDBRANCH  15  20
ENDBRANCH   1  15
TORSDOF 7
ENDMDL
MODEL 9
REMARK VINA RESULT:    -5.779      2.060      3.958
REMARK INTER + INTRA:          -9.260
REMARK INTER:                  -8.148
REMARK INTRA:                  -1.111
REMARK UNBOUND:                -1.115
REMARK  Name = 
REMARK  9 active torsions:
REMARK  status: ('A' for Active; 'I' for Inactive)
REMARK    1  A    between atoms: C_1  and  N_2
REMARK    2  A    between atoms: C_4  and  O_5
REMARK    3  A    between atoms: O_5  and  C_6
REMARK    4  A    between atoms: C_10  and  C_11
REMARK    5  A    between atoms: C_11  and  C_12
REMARK    6  A    between atoms: C_12  and  N_13
REMARK    7  A    between atoms: N_13  and  C_14
REMARK    8  A    between atoms: N_13  and  C_15
REMARK    9  A    between atoms: C_19  and  C_20
REMARK                            x       y       z     vdW  Elec       q    Type
REMARK                         _______ _______ _______ _____ _____    ______ ____
ROOT
ATOM      1  C   UNL     1      46.391   7.586  12.986  0.00  0.00    +0.000 C 
ENDROOT
BRANCH   1   2
ATOM      2  N   UNL     1      45.420   7.282  11.924  0.00  0.00    +0.000 N 
ATOM      3  C   UNL     1      44.678   8.426  11.388  0.00  0.00    +0.000 C 
BRANCH   2   4
ATOM      4  C   UNL     1      44.858   6.005  11.809  0.00  0.00    +0.000 A 
ATOM      5  C   UNL     1      43.994   5.464  12.781  0.00  0.00    +0.000 A 
ATOM      6  C   UNL     1      43.436   4.184  12.660  0.00  0.00    +0.000 A 
ATOM      7  C   UNL     1      43.718   3.405  11.549  0.00  0.00    +0.000 A 
ATOM      8  C   UNL     1      44.564   3.909  10.567  0.00  0.00    +0.000 A 
ATOM      9  C   UNL     1      45.150   5.175  10.717  0.00  0.00    +0.000 A 
BRANCH   8  10
ATOM     10  C   UNL     1      44.833   3.074   9.361  0.00  0.00    +0.000 C 
ATOM     11  N   UNL     1      44.528   1.742   9.440  0.00  0.00    +0.000 N 
ATOM     12  O   UNL     1      45.350   3.542   8.352  0.00  0.00    +0.000 OA
ATOM     13  H   UNL     1      44.349   1.278  10.317  0.00  0.00    +0.000 HD
ATOM     14  H   UNL     1      44.821   1.171   8.660  0.00  0.00    +0.000 HD
ENDBRANCH   8  10
ENDBRANCH   2   4
ENDBRANCH   1   2
BRANCH   1  15
ATOM     15  C   UNL     1      47.550   6.573  13.008  0.00  0.00    +0.000 C 
BRANCH  15  20
ATOM     16  C   UNL     1      48.592   5.662  16.564  0.00  0.00    +0.000 A 
ATOM     17  C   UNL     1      47.893   4.476  16.777  0.00  0.00    +0.000 A 
ATOM     18  C   UNL     1      47.120   3.933  15.754  0.00  0.00    +0.000 A 
ATOM     19  C   UNL     1      47.027   4.582  14.523  0.00  0.00    +0.000 A 
ATOM     20  C   UNL     1      47.673   5.808  14.311  0.00  0.00    +0.000 A 
ATOM     21  C   UNL     1      48.483   6.321  15.336  0.00  0.00    +0.000 A 
BRANCH  16  22
ATOM     22  O   UNL     1      49.381   6.283  17.499  0.00  0.00    +0.000 OA
BRANCH  22  26
ATOM     23  C   UNL     1      52.690   4.140  19.428  0.00  0.00    +0.000 C 
ATOM     24  N   UNL     1      51.444   4.719  18.945  0.00  0.00    +0.000 NA
ATOM     25  C   UNL     1      51.346   4.616  17.473  0.00  0.00    +0.000 C 
ATOM     26  C   UNL     1      50.814   6.074  17.448  0.00  0.00    +0.000 C 
ATOM     27  C   UNL     1      51.548   6.191  18.812  0.00  0.00    +0.000 C 
ENDBRANCH  22  26
ENDBRANCH  16  22
ENDBRANCH  15  20
ENDBRANCH   1  15
TORSDOF 7
ENDMDL
