MODEL 1
REMARK VINA RESULT:    -8.415      0.000      0.000
REMARK INTER + INTRA:         -12.816
REMARK INTER:                 -11.859
REMARK INTRA:                  -0.957
REMARK UNBOUND:                -0.957
REMARK  Name = 
REMARK  9 active torsions:
REMARK  status: ('A' for Active; 'I' for Inactive)
REMARK    1  A    between atoms: C_1  and  C_2
REMARK    2  A    between atoms: C_2  and  N_3
REMARK    3  A    between atoms: C_2  and  C_11
REMARK    4  A    between atoms: N_3  and  C_4
REMARK    5  A    between atoms: C_4  and  C_5
REMARK    6  A    between atoms: C_14  and  C_15
REMARK    7  A    between atoms: C_15  and  N_16
REMARK    8  A    between atoms: N_16  and  C_17
REMARK    9  A    between atoms: C_18  and  C_20
REMARK                            x       y       z     vdW  Elec       q    Type
REMARK                         _______ _______ _______ _____ _____    ______ ____
ROOT
ATOM      1  C   UNL     1      44.362   5.100  11.375  0.00  0.00    +0.000 A 
ATOM      2  C   UNL     1      45.445   5.456  10.553  0.00  0.00    +0.000 A 
ATOM      3  C   UNL     1      46.349   6.450  10.931  0.00  0.00    +0.000 A 
ATOM      4  C   UNL     1      46.206   7.126  12.148  0.00  0.00    +0.000 A 
ATOM      5  C   UNL     1      45.085   6.844  12.937  0.00  0.00    +0.000 A 
ATOM      6  C   UNL     1      44.179   5.839  12.557  0.00  0.00    +0.000 A 
ENDROOT
BRANCH   1   8
ATOM      7  C   UNL     1      43.589   2.703  11.875  0.00  0.00    +0.000 C 
ATOM      8  C   UNL     1      43.475   3.919  10.947  0.00  0.00    +0.000 C 
BRANCH   8   9
ATOM      9  N   UNL     1      43.794   3.563   9.551  0.00  0.00    +0.000 NA
ATOM     10  H   UNL     1      42.930   3.521   9.013  0.00  0.00    +0.000 HD
BRANCH   9  11
ATOM     11  C   UNL     1      44.527   2.311   9.341  0.00  0.00    +0.000 C 
BRANCH  11  12
ATOM     12  C   UNL     1      45.803   2.581   8.502  0.00  0.00    +0.000 C 
ATOM     13  C   UNL     1      46.390   1.264   7.960  0.00  0.00    +0.000 C 
ATOM     14  C   UNL     1      47.553   1.518   7.009  0.00  0.00    +0.000 C 
ATOM     15  C   UNL     1      47.157   2.498   5.912  0.00  0.00    +0.000 C 
ATOM     16  N   UNL     1      46.698   3.761   6.490  0.00  0.00    +0.000 NA
ATOM     17  C   UNL     1      45.521   3.560   7.345  0.00  0.00    +0.000 C 
ATOM     18  H   UNL     1      46.467   4.408   5.736  0.00  0.00    +0.000 HD
ENDBRANCH  11  12
ENDBRANCH   9  11
ENDBRANCH   8   9
ENDBRANCH   1   8
BRANCH   4  19
ATOM     19  C   UNL     1      47.288   8.071  12.623  0.00  0.00    +0.000 C 
BRANCH  19  20
ATOM     20  N   UNL     1      47.817   7.854  13.975  0.00  0.00    +0.000 N 
ATOM     21  C   UNL     1      47.694   8.931  14.947  0.00  0.00    +0.000 C 
ATOM     22  C   UNL     1      48.618   6.713  14.159  0.00  0.00    +0.000 C 
ATOM     23  O   UNL     1      48.815   5.921  13.232  0.00  0.00    +0.000 OA
BRANCH  22  24
ATOM     24  C   UNL     1      49.196   6.434  15.488  0.00  0.00    +0.000 A 
ATOM     25  C   UNL     1      50.295   7.099  16.012  0.00  0.00    +0.000 A 
ATOM     26  S   UNL     1      50.747   6.576  17.567  0.00  0.00    +0.000 S 
ATOM     27  C   UNL     1      49.391   5.560  17.671  0.00  0.00    +0.000 A 
ATOM     28  N   UNL     1      49.117   4.894  18.822  0.00  0.00    +0.000 NA
ATOM     29  C   UNL     1      48.032   4.201  18.779  0.00  0.00    +0.000 A 
ATOM     30  N   UNL     1      47.220   4.075  17.680  0.00  0.00    +0.000 N 
ATOM     31  C   UNL     1      47.523   4.634  16.455  0.00  0.00    +0.000 A 
ATOM     32  O   UNL     1      46.896   4.316  15.450  0.00  0.00    +0.000 OA
ATOM     33  C   UNL     1      48.668   5.529  16.490  0.00  0.00    +0.000 A 
ATOM     34  H   UNL     1      46.419   3.459  17.692  0.00  0.00    +0.000 HD
ENDBRANCH  22  24
ENDBRANCH  19  20
ENDBRANCH   4  19
TORSDOF 7
ENDMDL
MODEL 2
REMARK VINA RESULT:    -8.044      1.852      2.224
REMARK INTER + INTRA:         -12.294
REMARK INTER:                 -10.977
REMARK INTRA:                  -1.316
REMARK UNBOUND:                -0.957
REMARK  Name = 
REMARK  9 active torsions:
REMARK  status: ('A' for Active; 'I' for Inactive)
REMARK    1  A    between atoms: C_1  and  C_2
REMARK    2  A    between atoms: C_2  and  N_3
REMARK    3  A    between atoms: C_2  and  C_11
REMARK    4  A    between atoms: N_3  and  C_4
REMARK    5  A    between atoms: C_4  and  C_5
REMARK    6  A    between atoms: C_14  and  C_15
REMARK    7  A    between atoms: C_15  and  N_16
REMARK    8  A    between atoms: N_16  and  C_17
REMARK    9  A    between atoms: C_18  and  C_20
REMARK                            x       y       z     vdW  Elec       q    Type
REMARK                         _______ _______ _______ _____ _____    ______ ____
ROOT
ATOM      1  C   UNL     1      45.642   5.177  12.273  0.00  0.00    +0.000 A 
ATOM      2  C   UNL     1      46.250   4.788  13.480  0.00  0.00    +0.000 A 
ATOM      3  C   UNL     1      47.385   5.439  13.965  0.00  0.00    +0.000 A 
ATOM      4  C   UNL     1      47.957   6.507  13.264  0.00  0.00    +0.000 A 
ATOM      5  C   UNL     1      47.415   6.850  12.020  0.00  0.00    +0.000 A 
ATOM      6  C   UNL     1      46.269   6.197  11.535  0.00  0.00    +0.000 A 
ENDROOT
BRANCH   1   8
ATOM      7  C   UNL     1      43.248   4.540  12.945  0.00  0.00    +0.000 C 
ATOM      8  C   UNL     1      44.330   4.489  11.859  0.00  0.00    +0.000 C 
BRANCH   8   9
ATOM      9  N   UNL     1      44.624   3.102  11.455  0.00  0.00    +0.000 NA
ATOM     10  H   UNL     1      45.610   2.909  11.620  0.00  0.00    +0.000 HD
BRANCH   9  11
ATOM     11  C   UNL     1      44.311   2.738  10.070  0.00  0.00    +0.000 C 
BRANCH  11  12
ATOM     12  C   UNL     1      45.572   2.907   9.182  0.00  0.00    +0.000 C 
ATOM     13  C   UNL     1      45.850   1.624   8.377  0.00  0.00    +0.000 C 
ATOM     14  C   UNL     1      46.991   1.819   7.386  0.00  0.00    +0.000 C 
ATOM     15  C   UNL     1      46.749   3.040   6.509  0.00  0.00    +0.000 C 
ATOM     16  N   UNL     1      46.588   4.241   7.330  0.00  0.00    +0.000 NA
ATOM     17  C   UNL     1      45.439   4.117   8.235  0.00  0.00    +0.000 C 
ATOM     18  H   UNL     1      46.456   5.047   6.718  0.00  0.00    +0.000 HD
ENDBRANCH  11  12
ENDBRANCH   9  11
ENDBRANCH   8   9
ENDBRANCH   1   8
BRANCH   4  19
ATOM     19  C   UNL     1      49.074   7.313  13.888  0.00  0.00    +0.000 C 
BRANCH  19  20
ATOM     20  N   UNL     1      48.916   7.694  15.297  0.00  0.00    +0.000 N 
ATOM     21  C   UNL     1      48.160   8.900  15.607  0.00  0.00    +0.000 C 
ATOM     22  C   UNL     1      49.708   7.000  16.227  0.00  0.00    +0.000 C 
ATOM     23  O   UNL     1      50.458   6.087  15.864  0.00  0.00    +0.000 OA
BRANCH  22  24
ATOM     24  C   UNL     1      49.614   7.335  17.661  0.00  0.00    +0.000 A 
ATOM     25  C   UNL     1      50.327   8.359  18.267  0.00  0.00    +0.000 A 
ATOM     26  S   UNL     1      50.022   8.525  19.934  0.00  0.00    +0.000 S 
ATOM     27  C   UNL     1      48.802   7.347  19.877  0.00  0.00    +0.000 A 
ATOM     28  N   UNL     1      48.045   7.086  20.973  0.00  0.00    +0.000 NA
ATOM     29  C   UNL     1      47.124   6.208  20.776  0.00  0.00    +0.000 A 
ATOM     30  N   UNL     1      46.915   5.535  19.598  0.00  0.00    +0.000 N 
ATOM     31  C   UNL     1      47.735   5.678  18.497  0.00  0.00    +0.000 A 
ATOM     32  O   UNL     1      47.654   4.902  17.551  0.00  0.00    +0.000 OA
ATOM     33  C   UNL     1      48.708   6.750  18.630  0.00  0.00    +0.000 A 
ATOM     34  H   UNL     1      46.218   4.807  19.530  0.00  0.00    +0.000 HD
ENDBRANCH  22  24
ENDBRANCH  19  20
ENDBRANCH   4  19
TORSDOF 7
ENDMDL
MODEL 3
REMARK VINA RESULT:    -7.414      2.501      3.264
REMARK INTER + INTRA:         -11.406
REMARK INTER:                 -10.243
REMARK INTRA:                  -1.163
REMARK UNBOUND:                -0.957
REMARK  Name = 
REMARK  9 active torsions:
REMARK  status: ('A' for Active; 'I' for Inactive)
REMARK    1  A    between atoms: C_1  and  C_2
REMARK    2  A    between atoms: C_2  and  N_3
REMARK    3  A    between atoms: C_2  and  C_11
REMARK    4  A    between atoms: N_3  and  C_4
REMARK    5  A    between atoms: C_4  and  C_5
REMARK    6  A    between atoms: C_14  and  C_15
REMARK    7  A    between atoms: C_15  and  N_16
REMARK    8  A    between atoms: N_16  and  C_17
REMARK    9  A    between atoms: C_18  and  C_20
REMARK                            x       y       z     vdW  Elec       q    Type
REMARK                         _______ _______ _______ _____ _____    ______ ____
ROOT
ATOM      1  C   UNL     1      45.424   5.496  11.833  0.00  0.00    +0.000 A 
ATOM      2  C   UNL     1      45.865   4.872  13.013  0.00  0.00    +0.000 A 
ATOM      3  C   UNL     1      47.031   5.282  13.661  0.00  0.00    +0.000 A 
ATOM      4  C   UNL     1      47.802   6.335  13.155  0.00  0.00    +0.000 A 
ATOM      5  C   UNL     1      47.424   6.909  11.936  0.00  0.00    +0.000 A 
ATOM      6  C   UNL     1      46.247   6.498  11.288  0.00  0.00    +0.000 A 
ENDROOT
BRANCH   1   8
ATOM      7  C   UNL     1      43.033   4.689  12.301  0.00  0.00    +0.000 C 
ATOM      8  C   UNL     1      44.072   5.067  11.238  0.00  0.00    +0.000 C 
BRANCH   8   9
ATOM      9  N   UNL     1      44.297   3.962  10.287  0.00  0.00    +0.000 NA
ATOM     10  H   UNL     1      45.126   3.443  10.571  0.00  0.00    +0.000 HD
BRANCH   9  11
ATOM     11  C   UNL     1      44.445   4.328   8.875  0.00  0.00    +0.000 C 
BRANCH  11  12
ATOM     12  C   UNL     1      44.991   3.119   8.071  0.00  0.00    +0.000 C 
ATOM     13  C   UNL     1      46.161   3.546   7.166  0.00  0.00    +0.000 C 
ATOM     14  C   UNL     1      46.809   2.348   6.484  0.00  0.00    +0.000 C 
ATOM     15  C   UNL     1      47.194   1.283   7.502  0.00  0.00    +0.000 C 
ATOM     16  N   UNL     1      46.021   0.851   8.264  0.00  0.00    +0.000 NA
ATOM     17  C   UNL     1      45.425   1.970   9.004  0.00  0.00    +0.000 C 
ATOM     18  H   UNL     1      46.300   0.118   8.917  0.00  0.00    +0.000 HD
ENDBRANCH  11  12
ENDBRANCH   9  11
ENDBRANCH   8   9
ENDBRANCH   1   8
BRANCH   4  19
ATOM     19  C   UNL     1      48.960   6.883  13.961  0.00  0.00    +0.000 C 
BRANCH  19  20
ATOM     20  N   UNL     1      48.661   7.369  15.313  0.00  0.00    +0.000 N 
ATOM     21  C   UNL     1      48.176   8.733  15.467  0.00  0.00    +0.000 C 
ATOM     22  C   UNL     1      49.093   6.562  16.380  0.00  0.00    +0.000 C 
ATOM     23  O   UNL     1      49.652   5.480  16.169  0.00  0.00    +0.000 OA
BRANCH  22  24
ATOM     24  C   UNL     1      48.841   6.990  17.769  0.00  0.00    +0.000 A 
ATOM     25  C   UNL     1      47.788   6.529  18.545  0.00  0.00    +0.000 A 
ATOM     26  S   UNL     1      47.739   7.190  20.113  0.00  0.00    +0.000 S 
ATOM     27  C   UNL     1      49.217   7.988  19.874  0.00  0.00    +0.000 A 
ATOM     28  N   UNL     1      49.810   8.658  20.895  0.00  0.00    +0.000 NA
ATOM     29  C   UNL     1      50.951   9.172  20.591  0.00  0.00    +0.000 A 
ATOM     30  N   UNL     1      51.535   9.117  19.349  0.00  0.00    +0.000 N 
ATOM     31  C   UNL     1      50.913   8.554  18.253  0.00  0.00    +0.000 A 
ATOM     32  O   UNL     1      51.363   8.723  17.124  0.00  0.00    +0.000 OA
ATOM     33  C   UNL     1      49.684   7.850  18.577  0.00  0.00    +0.000 A 
ATOM     34  H   UNL     1      52.400   9.602  19.159  0.00  0.00    +0.000 HD
ENDBRANCH  22  24
ENDBRANCH  19  20
ENDBRANCH   4  19
TORSDOF 7
ENDMDL
MODEL 4
REMARK VINA RESULT:    -7.097      3.421      5.495
REMARK INTER + INTRA:         -10.958
REMARK INTER:                  -9.748
REMARK INTRA:                  -1.210
REMARK UNBOUND:                -0.957
REMARK  Name = 
REMARK  9 active torsions:
REMARK  status: ('A' for Active; 'I' for Inactive)
REMARK    1  A    between atoms: C_1  and  C_2
REMARK    2  A    between atoms: C_2  and  N_3
REMARK    3  A    between atoms: C_2  and  C_11
REMARK    4  A    between atoms: N_3  and  C_4
REMARK    5  A    between atoms: C_4  and  C_5
REMARK    6  A    between atoms: C_14  and  C_15
REMARK    7  A    between atoms: C_15  and  N_16
REMARK    8  A    between atoms: N_16  and  C_17
REMARK    9  A    between atoms: C_18  and  C_20
REMARK                            x       y       z     vdW  Elec       q    Type
REMARK                         _______ _______ _______ _____ _____    ______ ____
ROOT
ATOM      1  C   UNL     1      44.794   5.100  11.867  0.00  0.00    +0.000 A 
ATOM      2  C   UNL     1      45.063   6.445  11.556  0.00  0.00    +0.000 A 
ATOM      3  C   UNL     1      46.128   7.129  12.144  0.00  0.00    +0.000 A 
ATOM      4  C   UNL     1      46.968   6.494  13.066  0.00  0.00    +0.000 A 
ATOM      5  C   UNL     1      46.662   5.184  13.451  0.00  0.00    +0.000 A 
ATOM      6  C   UNL     1      45.593   4.495  12.854  0.00  0.00    +0.000 A 
ENDROOT
BRANCH   1   8
ATOM      7  C   UNL     1      43.219   3.076  11.762  0.00  0.00    +0.000 C 
ATOM      8  C   UNL     1      43.676   4.380  11.096  0.00  0.00    +0.000 C 
BRANCH   8   9
ATOM      9  N   UNL     1      44.123   4.149   9.709  0.00  0.00    +0.000 NA
ATOM     10  H   UNL     1      43.412   4.498   9.068  0.00  0.00    +0.000 HD
BRANCH   9  11
ATOM     11  C   UNL     1      44.435   2.766   9.339  0.00  0.00    +0.000 C 
BRANCH  11  12
ATOM     12  C   UNL     1      45.824   2.704   8.652  0.00  0.00    +0.000 C 
ATOM     13  C   UNL     1      46.078   1.307   8.054  0.00  0.00    +0.000 C 
ATOM     14  C   UNL     1      47.367   1.269   7.244  0.00  0.00    +0.000 C 
ATOM     15  C   UNL     1      47.391   2.383   6.205  0.00  0.00    +0.000 C 
ATOM     16  N   UNL     1      47.242   3.689   6.846  0.00  0.00    +0.000 NA
ATOM     17  C   UNL     1      45.964   3.787   7.563  0.00  0.00    +0.000 C 
ATOM     18  H   UNL     1      47.290   4.417   6.133  0.00  0.00    +0.000 HD
ENDBRANCH  11  12
ENDBRANCH   9  11
ENDBRANCH   8   9
ENDBRANCH   1   8
BRANCH   4  19
ATOM     19  C   UNL     1      48.219   7.190  13.558  0.00  0.00    +0.000 C 
BRANCH  19  20
ATOM     20  N   UNL     1      48.854   8.146  12.643  0.00  0.00    +0.000 N 
ATOM     21  C   UNL     1      49.562   7.627  11.482  0.00  0.00    +0.000 C 
ATOM     22  C   UNL     1      48.935   9.478  13.086  0.00  0.00    +0.000 C 
ATOM     23  O   UNL     1      48.450   9.816  14.171  0.00  0.00    +0.000 OA
BRANCH  22  24
ATOM     24  C   UNL     1      49.572  10.495  12.227  0.00  0.00    +0.000 A 
ATOM     25  C   UNL     1      50.934  10.752  12.207  0.00  0.00    +0.000 A 
ATOM     26  S   UNL     1      51.394  11.977  11.118  0.00  0.00    +0.000 S 
ATOM     27  C   UNL     1      49.814  12.095  10.509  0.00  0.00    +0.000 A 
ATOM     28  N   UNL     1      49.543  12.899   9.450  0.00  0.00    +0.000 NA
ATOM     29  C   UNL     1      48.317  12.854   9.058  0.00  0.00    +0.000 A 
ATOM     30  N   UNL     1      47.327  12.113   9.653  0.00  0.00    +0.000 N 
ATOM     31  C   UNL     1      47.529  11.377  10.803  0.00  0.00    +0.000 A 
ATOM     32  O   UNL     1      46.578  10.915  11.426  0.00  0.00    +0.000 OA
ATOM     33  C   UNL     1      48.923  11.296  11.206  0.00  0.00    +0.000 A 
ATOM     34  H   UNL     1      46.369  12.175   9.339  0.00  0.00    +0.000 HD
ENDBRANCH  22  24
ENDBRANCH  19  20
ENDBRANCH   4  19
TORSDOF 7
ENDMDL
MODEL 5
REMARK VINA RESULT:    -7.036      3.008      4.590
REMARK INTER + INTRA:         -10.872
REMARK INTER:                 -10.422
REMARK INTRA:                  -0.451
REMARK UNBOUND:                -0.957
REMARK  Name = 
REMARK  9 active torsions:
REMARK  status: ('A' for Active; 'I' for Inactive)
REMARK    1  A    between atoms: C_1  and  C_2
REMARK    2  A    between atoms: C_2  and  N_3
REMARK    3  A    between atoms: C_2  and  C_11
REMARK    4  A    between atoms: N_3  and  C_4
REMARK    5  A    between atoms: C_4  and  C_5
REMARK    6  A    between atoms: C_14  and  C_15
REMARK    7  A    between atoms: C_15  and  N_16
REMARK    8  A    between atoms: N_16  and  C_17
REMARK    9  A    between atoms: C_18  and  C_20
REMARK                            x       y       z     vdW  Elec       q    Type
REMARK                         _______ _______ _______ _____ _____    ______ ____
ROOT
ATOM      1  C   UNL     1      47.322   5.885  13.557  0.00  0.00    +0.000 A 
ATOM      2  C   UNL     1      47.093   4.845  14.476  0.00  0.00    +0.000 A 
ATOM      3  C   UNL     1      47.617   4.887  15.768  0.00  0.00    +0.000 A 
ATOM      4  C   UNL     1      48.391   5.973  16.194  0.00  0.00    +0.000 A 
ATOM      5  C   UNL     1      48.700   6.974  15.266  0.00  0.00    +0.000 A 
ATOM      6  C   UNL     1      48.166   6.932  13.967  0.00  0.00    +0.000 A 
ENDROOT
BRANCH   1   8
ATOM      7  C   UNL     1      46.154   7.194  11.683  0.00  0.00    +0.000 C 
ATOM      8  C   UNL     1      46.618   5.824  12.191  0.00  0.00    +0.000 C 
BRANCH   8   9
ATOM      9  N   UNL     1      45.494   4.871  12.274  0.00  0.00    +0.000 NA
ATOM     10  H   UNL     1      45.825   3.943  12.018  0.00  0.00    +0.000 HD
BRANCH   9  11
ATOM     11  C   UNL     1      44.311   5.176  11.464  0.00  0.00    +0.000 C 
BRANCH  11  12
ATOM     12  C   UNL     1      44.248   4.222  10.243  0.00  0.00    +0.000 C 
ATOM     13  C   UNL     1      45.292   4.619   9.183  0.00  0.00    +0.000 C 
ATOM     14  C   UNL     1      45.351   3.606   8.046  0.00  0.00    +0.000 C 
ATOM     15  C   UNL     1      45.545   2.194   8.583  0.00  0.00    +0.000 C 
ATOM     16  N   UNL     1      44.469   1.843   9.511  0.00  0.00    +0.000 NA
ATOM     17  C   UNL     1      44.443   2.751  10.665  0.00  0.00    +0.000 C 
ATOM     18  H   UNL     1      44.607   0.885   9.833  0.00  0.00    +0.000 HD
ENDBRANCH  11  12
ENDBRANCH   9  11
ENDBRANCH   8   9
ENDBRANCH   1   8
BRANCH   4  19
ATOM     19  C   UNL     1      48.802   6.089  17.646  0.00  0.00    +0.000 C 
BRANCH  19  20
ATOM     20  N   UNL     1      49.810   5.139  18.132  0.00  0.00    +0.000 N 
ATOM     21  C   UNL     1      49.537   4.411  19.363  0.00  0.00    +0.000 C 
ATOM     22  C   UNL     1      51.066   5.180  17.502  0.00  0.00    +0.000 C 
ATOM     23  O   UNL     1      51.277   5.950  16.559  0.00  0.00    +0.000 OA
BRANCH  22  24
ATOM     24  C   UNL     1      52.135   4.263  17.945  0.00  0.00    +0.000 A 
ATOM     25  C   UNL     1      53.279   4.671  18.613  0.00  0.00    +0.000 A 
ATOM     26  S   UNL     1      54.343   3.401  19.007  0.00  0.00    +0.000 S 
ATOM     27  C   UNL     1      53.238   2.239  18.450  0.00  0.00    +0.000 A 
ATOM     28  N   UNL     1      53.494   0.916  18.607  0.00  0.00    +0.000 NA
ATOM     29  C   UNL     1      52.550   0.147  18.186  0.00  0.00    +0.000 A 
ATOM     30  N   UNL     1      51.394   0.576  17.583  0.00  0.00    +0.000 N 
ATOM     31  C   UNL     1      51.147   1.902  17.292  0.00  0.00    +0.000 A 
ATOM     32  O   UNL     1      50.217   2.219  16.559  0.00  0.00    +0.000 OA
ATOM     33  C   UNL     1      52.123   2.815  17.863  0.00  0.00    +0.000 A 
ATOM     34  H   UNL     1      50.724  -0.084  17.213  0.00  0.00    +0.000 HD
ENDBRANCH  22  24
ENDBRANCH  19  20
ENDBRANCH   4  19
TORSDOF 7
ENDMDL
MODEL 6
REMARK VINA RESULT:    -7.036      1.497      1.881
REMARK INTER + INTRA:         -10.872
REMARK INTER:                  -9.904
REMARK INTRA:                  -0.968
REMARK UNBOUND:                -0.957
REMARK  Name = 
REMARK  9 active torsions:
REMARK  status: ('A' for Active; 'I' for Inactive)
REMARK    1  A    between atoms: C_1  and  C_2
REMARK    2  A    between atoms: C_2  and  N_3
REMARK    3  A    between atoms: C_2  and  C_11
REMARK    4  A    between atoms: N_3  and  C_4
REMARK    5  A    between atoms: C_4  and  C_5
REMARK    6  A    between atoms: C_14  and  C_15
REMARK    7  A    between atoms: C_15  and  N_16
REMARK    8  A    between atoms: N_16  and  C_17
REMARK    9  A    between atoms: C_18  and  C_20
REMARK                            x       y       z     vdW  Elec       q    Type
REMARK                         _______ _______ _______ _____ _____    ______ ____
ROOT
ATOM      1  C   UNL     1      45.141   5.771  11.661  0.00  0.00    +0.000 A 
ATOM      2  C   UNL     1      44.813   7.138  11.621  0.00  0.00    +0.000 A 
ATOM      3  C   UNL     1      45.657   8.105  12.167  0.00  0.00    +0.000 A 
ATOM      4  C   UNL     1      46.865   7.743  12.775  0.00  0.00    +0.000 A 
ATOM      5  C   UNL     1      47.165   6.382  12.900  0.00  0.00    +0.000 A 
ATOM      6  C   UNL     1      46.316   5.410  12.344  0.00  0.00    +0.000 A 
ENDROOT
BRANCH   1   8
ATOM      7  C   UNL     1      42.822   4.673  11.566  0.00  0.00    +0.000 C 
ATOM      8  C   UNL     1      44.217   4.775  10.938  0.00  0.00    +0.000 C 
BRANCH   8   9
ATOM      9  N   UNL     1      44.882   3.459  10.885  0.00  0.00    +0.000 NA
ATOM     10  H   UNL     1      45.885   3.588  11.006  0.00  0.00    +0.000 HD
BRANCH   9  11
ATOM     11  C   UNL     1      44.664   2.660   9.675  0.00  0.00    +0.000 C 
BRANCH  11  12
ATOM     12  C   UNL     1      45.896   2.772   8.740  0.00  0.00    +0.000 C 
ATOM     13  C   UNL     1      46.250   1.402   8.133  0.00  0.00    +0.000 C 
ATOM     14  C   UNL     1      47.359   1.517   7.095  0.00  0.00    +0.000 C 
ATOM     15  C   UNL     1      47.019   2.569   6.048  0.00  0.00    +0.000 C 
ATOM     16  N   UNL     1      46.788   3.869   6.679  0.00  0.00    +0.000 NA
ATOM     17  C   UNL     1      45.664   3.810   7.623  0.00  0.00    +0.000 C 
ATOM     18  H   UNL     1      46.591   4.560   5.955  0.00  0.00    +0.000 HD
ENDBRANCH  11  12
ENDBRANCH   9  11
ENDBRANCH   8   9
ENDBRANCH   1   8
BRANCH   4  19
ATOM     19  C   UNL     1      47.849   8.810  13.202  0.00  0.00    +0.000 C 
BRANCH  19  20
ATOM     20  N   UNL     1      48.956   8.389  14.070  0.00  0.00    +0.000 N 
ATOM     21  C   UNL     1      50.084   7.694  13.465  0.00  0.00    +0.000 C 
ATOM     22  C   UNL     1      48.734   8.474  15.455  0.00  0.00    +0.000 C 
ATOM     23  O   UNL     1      47.674   8.927  15.900  0.00  0.00    +0.000 OA
BRANCH  22  24
ATOM     24  C   UNL     1      49.795   8.056  16.392  0.00  0.00    +0.000 A 
ATOM     25  C   UNL     1      50.736   8.919  16.934  0.00  0.00    +0.000 A 
ATOM     26  S   UNL     1      51.841   8.167  17.988  0.00  0.00    +0.000 S 
ATOM     27  C   UNL     1      51.003   6.694  17.893  0.00  0.00    +0.000 A 
ATOM     28  N   UNL     1      51.372   5.641  18.666  0.00  0.00    +0.000 NA
ATOM     29  C   UNL     1      50.620   4.604  18.532  0.00  0.00    +0.000 A 
ATOM     30  N   UNL     1      49.560   4.506  17.665  0.00  0.00    +0.000 N 
ATOM     31  C   UNL     1      49.225   5.505  16.774  0.00  0.00    +0.000 A 
ATOM     32  O   UNL     1      48.423   5.295  15.870  0.00  0.00    +0.000 OA
ATOM     33  C   UNL     1      49.964   6.740  16.978  0.00  0.00    +0.000 A 
ATOM     34  H   UNL     1      49.053   3.639  17.558  0.00  0.00    +0.000 HD
ENDBRANCH  22  24
ENDBRANCH  19  20
ENDBRANCH   4  19
TORSDOF 7
ENDMDL
MODEL 7
REMARK VINA RESULT:    -6.900      3.162      4.879
REMARK INTER + INTRA:         -10.680
REMARK INTER:                  -9.479
REMARK INTRA:                  -1.201
REMARK UNBOUND:                -0.957
REMARK  Name = 
REMARK  9 active torsions:
REMARK  status: ('A' for Active; 'I' for Inactive)
REMARK    1  A    between atoms: C_1  and  C_2
REMARK    2  A    between atoms: C_2  and  N_3
REMARK    3  A    between atoms: C_2  and  C_11
REMARK    4  A    between atoms: N_3  and  C_4
REMARK    5  A    between atoms: C_4  and  C_5
REMARK    6  A    between atoms: C_14  and  C_15
REMARK    7  A    between atoms: C_15  and  N_16
REMARK    8  A    between atoms: N_16  and  C_17
REMARK    9  A    between atoms: C_18  and  C_20
REMARK                            x       y       z     vdW  Elec       q    Type
REMARK                         _______ _______ _______ _____ _____    ______ ____
ROOT
ATOM      1  C   UNL     1      47.080   5.767  13.590  0.00  0.00    +0.000 A 
ATOM      2  C   UNL     1      46.736   4.556  14.216  0.00  0.00    +0.000 A 
ATOM      3  C   UNL     1      47.280   4.195  15.450  0.00  0.00    +0.000 A 
ATOM      4  C   UNL     1      48.189   5.032  16.107  0.00  0.00    +0.000 A 
ATOM      5  C   UNL     1      48.607   6.199  15.457  0.00  0.00    +0.000 A 
ATOM      6  C   UNL     1      48.054   6.564  14.218  0.00  0.00    +0.000 A 
ENDROOT
BRANCH   1   8
ATOM      7  C   UNL     1      45.555   7.453  12.398  0.00  0.00    +0.000 C 
ATOM      8  C   UNL     1      46.355   6.149  12.289  0.00  0.00    +0.000 C 
BRANCH   8   9
ATOM      9  N   UNL     1      45.498   5.024  11.870  0.00  0.00    +0.000 NA
ATOM     10  H   UNL     1      46.083   4.285  11.486  0.00  0.00    +0.000 HD
BRANCH   9  11
ATOM     11  C   UNL     1      44.443   5.326  10.898  0.00  0.00    +0.000 C 
BRANCH  11  12
ATOM     12  C   UNL     1      44.428   4.247   9.783  0.00  0.00    +0.000 C 
ATOM     13  C   UNL     1      45.542   4.509   8.752  0.00  0.00    +0.000 C 
ATOM     14  C   UNL     1      45.643   3.379   7.736  0.00  0.00    +0.000 C 
ATOM     15  C   UNL     1      45.772   2.030   8.431  0.00  0.00    +0.000 C 
ATOM     16  N   UNL     1      44.636   1.800   9.324  0.00  0.00    +0.000 NA
ATOM     17  C   UNL     1      44.564   2.827  10.370  0.00  0.00    +0.000 C 
ATOM     18  H   UNL     1      44.732   0.880   9.753  0.00  0.00    +0.000 HD
ENDBRANCH  11  12
ENDBRANCH   9  11
ENDBRANCH   8   9
ENDBRANCH   1   8
BRANCH   4  19
ATOM     19  C   UNL     1      48.631   4.713  17.519  0.00  0.00    +0.000 C 
BRANCH  19  20
ATOM     20  N   UNL     1      48.707   5.834  18.464  0.00  0.00    +0.000 N 
ATOM     21  C   UNL     1      50.021   6.280  18.904  0.00  0.00    +0.000 C 
ATOM     22  C   UNL     1      47.498   6.235  19.059  0.00  0.00    +0.000 C 
ATOM     23  O   UNL     1      46.431   5.693  18.754  0.00  0.00    +0.000 OA
BRANCH  22  24
ATOM     24  C   UNL     1      47.496   7.347  20.029  0.00  0.00    +0.000 A 
ATOM     25  C   UNL     1      47.393   7.179  21.402  0.00  0.00    +0.000 A 
ATOM     26  S   UNL     1      47.420   8.635  22.284  0.00  0.00    +0.000 S 
ATOM     27  C   UNL     1      47.740   9.535  20.880  0.00  0.00    +0.000 A 
ATOM     28  N   UNL     1      47.994  10.866  20.959  0.00  0.00    +0.000 NA
ATOM     29  C   UNL     1      48.271  11.414  19.827  0.00  0.00    +0.000 A 
ATOM     30  N   UNL     1      48.276  10.765  18.617  0.00  0.00    +0.000 N 
ATOM     31  C   UNL     1      47.905   9.443  18.474  0.00  0.00    +0.000 A 
ATOM     32  O   UNL     1      47.707   8.966  17.362  0.00  0.00    +0.000 OA
ATOM     33  C   UNL     1      47.709   8.752  19.738  0.00  0.00    +0.000 A 
ATOM     34  H   UNL     1      48.434  11.268  17.756  0.00  0.00    +0.000 HD
ENDBRANCH  22  24
ENDBRANCH  19  20
ENDBRANCH   4  19
TORSDOF 7
ENDMDL
MODEL 8
REMARK VINA RESULT:    -6.866      2.123      3.429
REMARK INTER + INTRA:         -10.632
REMARK INTER:                  -9.482
REMARK INTRA:                  -1.151
REMARK UNBOUND:                -0.957
REMARK  Name = 
REMARK  9 active torsions:
REMARK  status: ('A' for Active; 'I' for Inactive)
REMARK    1  A    between atoms: C_1  and  C_2
REMARK    2  A    between atoms: C_2  and  N_3
REMARK    3  A    between atoms: C_2  and  C_11
REMARK    4  A    between atoms: N_3  and  C_4
REMARK    5  A    between atoms: C_4  and  C_5
REMARK    6  A    between atoms: C_14  and  C_15
REMARK    7  A    between atoms: C_15  and  N_16
REMARK    8  A    between atoms: N_16  and  C_17
REMARK    9  A    between atoms: C_18  and  C_20
REMARK                            x       y       z     vdW  Elec       q    Type
REMARK                         _______ _______ _______ _____ _____    ______ ____
ROOT
ATOM      1  C   UNL     1      47.246   6.923  12.102  0.00  0.00    +0.000 A 
ATOM      2  C   UNL     1      47.291   6.364  13.391  0.00  0.00    +0.000 A 
ATOM      3  C   UNL     1      48.401   6.533  14.219  0.00  0.00    +0.000 A 
ATOM      4  C   UNL     1      49.512   7.270  13.791  0.00  0.00    +0.000 A 
ATOM      5  C   UNL     1      49.519   7.758  12.479  0.00  0.00    +0.000 A 
ATOM      6  C   UNL     1      48.398   7.592  11.649  0.00  0.00    +0.000 A 
ENDROOT
BRANCH   1   8
ATOM      7  C   UNL     1      44.861   7.791  11.715  0.00  0.00    +0.000 C 
ATOM      8  C   UNL     1      45.946   6.792  11.291  0.00  0.00    +0.000 C 
BRANCH   8   9
ATOM      9  N   UNL     1      45.463   5.401  11.383  0.00  0.00    +0.000 NA
ATOM     10  H   UNL     1      46.152   4.782  10.961  0.00  0.00    +0.000 HD
BRANCH   9  11
ATOM     11  C   UNL     1      44.159   5.115  10.779  0.00  0.00    +0.000 C 
BRANCH  11  12
ATOM     12  C   UNL     1      44.322   4.077   9.637  0.00  0.00    +0.000 C 
ATOM     13  C   UNL     1      45.512   4.443   8.730  0.00  0.00    +0.000 C 
ATOM     14  C   UNL     1      45.784   3.358   7.697  0.00  0.00    +0.000 C 
ATOM     15  C   UNL     1      45.930   1.995   8.361  0.00  0.00    +0.000 C 
ATOM     16  N   UNL     1      44.729   1.665   9.129  0.00  0.00    +0.000 NA
ATOM     17  C   UNL     1      44.490   2.649  10.193  0.00  0.00    +0.000 C 
ATOM     18  H   UNL     1      44.841   0.738   9.539  0.00  0.00    +0.000 HD
ENDBRANCH  11  12
ENDBRANCH   9  11
ENDBRANCH   8   9
ENDBRANCH   1   8
BRANCH   4  19
ATOM     19  C   UNL     1      50.628   7.593  14.760  0.00  0.00    +0.000 C 
BRANCH  19  20
ATOM     20  N   UNL     1      50.263   7.732  16.175  0.00  0.00    +0.000 N 
ATOM     21  C   UNL     1      49.755   9.017  16.635  0.00  0.00    +0.000 C 
ATOM     22  C   UNL     1      50.658   6.689  17.030  0.00  0.00    +0.000 C 
ATOM     23  O   UNL     1      51.239   5.693  16.588  0.00  0.00    +0.000 OA
BRANCH  22  24
ATOM     24  C   UNL     1      50.339   6.764  18.469  0.00  0.00    +0.000 A 
ATOM     25  C   UNL     1      51.154   7.367  19.415  0.00  0.00    +0.000 A 
ATOM     26  S   UNL     1      50.538   7.311  21.001  0.00  0.00    +0.000 S 
ATOM     27  C   UNL     1      49.080   6.629  20.461  0.00  0.00    +0.000 A 
ATOM     28  N   UNL     1      48.052   6.431  21.324  0.00  0.00    +0.000 NA
ATOM     29  C   UNL     1      46.989   5.956  20.772  0.00  0.00    +0.000 A 
ATOM     30  N   UNL     1      46.873   5.620  19.447  0.00  0.00    +0.000 N 
ATOM     31  C   UNL     1      47.928   5.688  18.560  0.00  0.00    +0.000 A 
ATOM     32  O   UNL     1      47.848   5.172  17.451  0.00  0.00    +0.000 OA
ATOM     33  C   UNL     1      49.107   6.338  19.107  0.00  0.00    +0.000 A 
ATOM     34  H   UNL     1      46.033   5.186  19.091  0.00  0.00    +0.000 HD
ENDBRANCH  22  24
ENDBRANCH  19  20
ENDBRANCH   4  19
TORSDOF 7
ENDMDL
MODEL 9
REMARK VINA RESULT:    -6.774      2.669      8.566
REMARK INTER + INTRA:         -10.504
REMARK INTER:                  -8.847
REMARK INTRA:                  -1.657
REMARK UNBOUND:                -0.957
REMARK  Name = 
REMARK  9 active torsions:
REMARK  status: ('A' for Active; 'I' for Inactive)
REMARK    1  A    between atoms: C_1  and  C_2
REMARK    2  A    between atoms: C_2  and  N_3
REMARK    3  A    between atoms: C_2  and  C_11
REMARK    4  A    between atoms: N_3  and  C_4
REMARK    5  A    between atoms: C_4  and  C_5
REMARK    6  A    between atoms: C_14  and  C_15
REMARK    7  A    between atoms: C_15  and  N_16
REMARK    8  A    between atoms: N_16  and  C_17
REMARK    9  A    between atoms: C_18  and  C_20
REMARK                            x       y       z     vdW  Elec       q    Type
REMARK                         _______ _______ _______ _____ _____    ______ ____
ROOT
ATOM      1  C   UNL     1      49.941   8.725  16.013  0.00  0.00    +0.000 A 
ATOM      2  C   UNL     1      48.576   9.040  16.136  0.00  0.00    +0.000 A 
ATOM      3  C   UNL     1      47.705   8.937  15.051  0.00  0.00    +0.000 A 
ATOM      4  C   UNL     1      48.165   8.514  13.798  0.00  0.00    +0.000 A 
ATOM      5  C   UNL     1      49.536   8.280  13.638  0.00  0.00    +0.000 A 
ATOM      6  C   UNL     1      50.410   8.379  14.734  0.00  0.00    +0.000 A 
ENDROOT
BRANCH   1   8
ATOM      7  C   UNL     1      52.302   8.501  16.996  0.00  0.00    +0.000 C 
ATOM      8  C   UNL     1      50.815   8.752  17.279  0.00  0.00    +0.000 C 
BRANCH   8   9
ATOM      9  N   UNL     1      50.279   7.780  18.251  0.00  0.00    +0.000 NA
ATOM     10  H   UNL     1      50.678   7.974  19.168  0.00  0.00    +0.000 HD
BRANCH   9  11
ATOM     11  C   UNL     1      50.490   6.361  17.949  0.00  0.00    +0.000 C 
BRANCH  11  12
ATOM     12  C   UNL     1      49.136   5.606  17.993  0.00  0.00    +0.000 C 
ATOM     13  C   UNL     1      48.608   5.346  16.570  0.00  0.00    +0.000 C 
ATOM     14  C   UNL     1      47.359   4.473  16.585  0.00  0.00    +0.000 C 
ATOM     15  C   UNL     1      47.595   3.198  17.383  0.00  0.00    +0.000 C 
ATOM     16  N   UNL     1      48.001   3.514  18.753  0.00  0.00    +0.000 NA
ATOM     17  C   UNL     1      49.253   4.281  18.773  0.00  0.00    +0.000 C 
ATOM     18  H   UNL     1      48.124   2.644  19.272  0.00  0.00    +0.000 HD
ENDBRANCH  11  12
ENDBRANCH   9  11
ENDBRANCH   8   9
ENDBRANCH   1   8
BRANCH   4  19
ATOM     19  C   UNL     1      47.181   8.238  12.682  0.00  0.00    +0.000 C 
BRANCH  19  20
ATOM     20  N   UNL     1      46.682   6.864  12.557  0.00  0.00    +0.000 N 
ATOM     21  C   UNL     1      47.572   5.769  12.915  0.00  0.00    +0.000 C 
ATOM     22  C   UNL     1      45.464   6.699  11.875  0.00  0.00    +0.000 C 
ATOM     23  O   UNL     1      44.838   7.676  11.451  0.00  0.00    +0.000 OA
BRANCH  22  24
ATOM     24  C   UNL     1      44.904   5.345  11.698  0.00  0.00    +0.000 A 
ATOM     25  C   UNL     1      44.156   4.682  12.660  0.00  0.00    +0.000 A 
ATOM     26  S   UNL     1      43.633   3.133  12.188  0.00  0.00    +0.000 S 
ATOM     27  C   UNL     1      44.241   3.354  10.619  0.00  0.00    +0.000 A 
ATOM     28  N   UNL     1      44.019   2.422   9.657  0.00  0.00    +0.000 NA
ATOM     29  C   UNL     1      44.491   2.740   8.501  0.00  0.00    +0.000 A 
ATOM     30  N   UNL     1      45.202   3.882   8.227  0.00  0.00    +0.000 N 
ATOM     31  C   UNL     1      45.557   4.795   9.199  0.00  0.00    +0.000 A 
ATOM     32  O   UNL     1      46.375   5.677   8.960  0.00  0.00    +0.000 OA
ATOM     33  C   UNL     1      44.938   4.544  10.489  0.00  0.00    +0.000 A 
ATOM     34  H   UNL     1      45.605   4.038   7.314  0.00  0.00    +0.000 HD
ENDBRANCH  22  24
ENDBRANCH  19  20
ENDBRANCH   4  19
TORSDOF 7
ENDMDL
