MODEL 1
REMARK VINA RESULT:    -7.685      0.000      0.000
REMARK INTER + INTRA:         -14.670
REMARK INTER:                 -12.627
REMARK INTRA:                  -2.043
REMARK UNBOUND:                -2.043
REMARK  Name = 
REMARK  12 active torsions:
REMARK  status: ('A' for Active; 'I' for Inactive)
REMARK    1  A    between atoms: C_2  and  C_25
REMARK    2  A    between atoms: N_3  and  CA_4
REMARK    3  A    between atoms: CA_4  and  C_5
REMARK    4  A    between atoms: CA_4  and  C_7
REMARK    5  A    between atoms: C_5  and  O_6
REMARK    6  A    between atoms: C_10  and  C_11
REMARK    7  A    between atoms: C_11  and  N_12
REMARK    8  A    between atoms: N_12  and  C_13
REMARK    9  A    between atoms: N_12  and  C_16
REMARK   10  A    between atoms: C_13  and  C_14
REMARK   11  A    between atoms: C_14  and  O_15
REMARK   12  A    between atoms: C_16  and  C_17
REMARK                            x       y       z     vdW  Elec       q    Type
REMARK                         _______ _______ _______ _____ _____    ______ ____
ROOT
ATOM      1  CA  UNL     1      47.461   8.094  13.345  0.00  0.00    +0.000 C 
ENDROOT
BRANCH   1   2
ATOM      2  C   UNL     1      46.494   7.333  12.452  0.00  0.00    +0.000 A 
ATOM      3  C   UNL     1      47.012   6.569  11.394  0.00  0.00    +0.000 A 
ATOM      4  C   UNL     1      46.171   5.804  10.588  0.00  0.00    +0.000 A 
ATOM      5  C   UNL     1      44.796   5.756  10.843  0.00  0.00    +0.000 A 
ATOM      6  C   UNL     1      44.265   6.551  11.867  0.00  0.00    +0.000 A 
ATOM      7  C   UNL     1      45.108   7.323  12.672  0.00  0.00    +0.000 A 
BRANCH   5   8
ATOM      8  C   UNL     1      43.918   4.802  10.064  0.00  0.00    +0.000 C 
BRANCH   8   9
ATOM      9  N   UNL     1      44.354   3.386  10.183  0.00  0.00    +0.000 NA
BRANCH   9  10
ATOM     10  C   UNL     1      43.543   2.672  11.201  0.00  0.00    +0.000 C 
BRANCH  10  11
ATOM     11  C   UNL     1      43.925   2.948  12.667  0.00  0.00    +0.000 C 
BRANCH  11  12
ATOM     12  O   UNL     1      45.343   2.889  12.831  0.00  0.00    +0.000 OA
ATOM     13  H   UNL     1      45.725   2.737  11.950  0.00  0.00    +0.000 HD
ENDBRANCH  11  12
ENDBRANCH  10  11
ENDBRANCH   9  10
BRANCH   9  14
ATOM     14  C   UNL     1      44.242   2.718   8.872  0.00  0.00    +0.000 C 
BRANCH  14  15
ATOM     15  C   UNL     1      45.555   2.525   8.144  0.00  0.00    +0.000 A 
ATOM     16  C   UNL     1      46.187   1.273   8.120  0.00  0.00    +0.000 A 
ATOM     17  C   UNL     1      47.343   1.079   7.363  0.00  0.00    +0.000 A 
ATOM     18  C   UNL     1      47.883   2.136   6.631  0.00  0.00    +0.000 A 
ATOM     19  C   UNL     1      47.282   3.393   6.675  0.00  0.00    +0.000 A 
ATOM     20  C   UNL     1      46.125   3.588   7.429  0.00  0.00    +0.000 A 
ENDBRANCH  14  15
ENDBRANCH   9  14
ENDBRANCH   8   9
ENDBRANCH   5   8
ENDBRANCH   1   2
BRANCH   1  23
ATOM     21  O   UNL     1      49.972   7.139  14.166  0.00  0.00    +0.000 OA
ATOM     22  C   UNL     1      49.004   6.950  14.897  0.00  0.00    +0.000 C 
ATOM     23  N   UNL     1      47.731   7.310  14.541  0.00  0.00    +0.000 N 
ATOM     24  H   UNL     1      46.993   7.268  15.235  0.00  0.00    +0.000 HD
BRANCH  22  25
ATOM     25  C   UNL     1      49.155   6.290  16.198  0.00  0.00    +0.000 A 
ATOM     26  C   UNL     1      49.938   6.873  17.187  0.00  0.00    +0.000 A 
ATOM     27  S   UNL     1      49.992   5.969  18.632  0.00  0.00    +0.000 S 
ATOM     28  C   UNL     1      48.931   4.794  18.000  0.00  0.00    +0.000 A 
ATOM     29  N   UNL     1      48.526   3.742  18.758  0.00  0.00    +0.000 NA
ATOM     30  C   UNL     1      47.685   2.957  18.173  0.00  0.00    +0.000 A 
ATOM     31  N   UNL     1      47.222   3.123  16.891  0.00  0.00    +0.000 N 
ATOM     32  C   UNL     1      47.644   4.141  16.070  0.00  0.00    +0.000 A 
ATOM     33  O   UNL     1      47.278   4.213  14.904  0.00  0.00    +0.000 OA
ATOM     34  C   UNL     1      48.566   5.073  16.699  0.00  0.00    +0.000 A 
ATOM     35  H   UNL     1      46.577   2.463  16.488  0.00  0.00    +0.000 HD
ENDBRANCH  22  25
ENDBRANCH   1  23
BRANCH   1  36
ATOM     36  C   UNL     1      46.972   9.517  13.705  0.00  0.00    +0.000 C 
BRANCH  36  37
ATOM     37  O   UNL     1      47.741  10.539  13.074  0.00  0.00    +0.000 OA
ATOM     38  H   UNL     1      48.146  11.073  13.779  0.00  0.00    +0.000 HD
ENDBRANCH  36  37
ENDBRANCH   1  36
TORSDOF 12
ENDMDL
MODEL 2
REMARK VINA RESULT:    -7.588      2.167      2.683
REMARK INTER + INTRA:         -14.510
REMARK INTER:                 -13.010
REMARK INTRA:                  -1.500
REMARK UNBOUND:                -2.043
REMARK  Name = 
REMARK  12 active torsions:
REMARK  status: ('A' for Active; 'I' for Inactive)
REMARK    1  A    between atoms: C_2  and  C_25
REMARK    2  A    between atoms: N_3  and  CA_4
REMARK    3  A    between atoms: CA_4  and  C_5
REMARK    4  A    between atoms: CA_4  and  C_7
REMARK    5  A    between atoms: C_5  and  O_6
REMARK    6  A    between atoms: C_10  and  C_11
REMARK    7  A    between atoms: C_11  and  N_12
REMARK    8  A    between atoms: N_12  and  C_13
REMARK    9  A    between atoms: N_12  and  C_16
REMARK   10  A    between atoms: C_13  and  C_14
REMARK   11  A    between atoms: C_14  and  O_15
REMARK   12  A    between atoms: C_16  and  C_17
REMARK                            x       y       z     vdW  Elec       q    Type
REMARK                         _______ _______ _______ _____ _____    ______ ____
ROOT
ATOM      1  CA  UNL     1      48.777   7.222  14.480  0.00  0.00    +0.000 C 
ENDROOT
BRANCH   1   2
ATOM      2  C   UNL     1      47.836   6.693  13.408  0.00  0.00    +0.000 A 
ATOM      3  C   UNL     1      47.047   5.569  13.698  0.00  0.00    +0.000 A 
ATOM      4  C   UNL     1      46.125   5.087  12.771  0.00  0.00    +0.000 A 
ATOM      5  C   UNL     1      45.945   5.739  11.546  0.00  0.00    +0.000 A 
ATOM      6  C   UNL     1      46.760   6.833  11.230  0.00  0.00    +0.000 A 
ATOM      7  C   UNL     1      47.689   7.314  12.158  0.00  0.00    +0.000 A 
BRANCH   5   8
ATOM      8  C   UNL     1      44.833   5.302  10.616  0.00  0.00    +0.000 C 
BRANCH   8   9
ATOM      9  N   UNL     1      44.458   3.875  10.794  0.00  0.00    +0.000 NA
BRANCH   9  10
ATOM     10  C   UNL     1      43.316   3.747  11.735  0.00  0.00    +0.000 C 
BRANCH  10  11
ATOM     11  C   UNL     1      42.519   5.039  11.991  0.00  0.00    +0.000 C 
BRANCH  11  12
ATOM     12  O   UNL     1      42.593   5.404  13.369  0.00  0.00    +0.000 OA
ATOM     13  H   UNL     1      42.612   6.376  13.406  0.00  0.00    +0.000 HD
ENDBRANCH  11  12
ENDBRANCH  10  11
ENDBRANCH   9  10
BRANCH   9  14
ATOM     14  C   UNL     1      44.118   3.283   9.486  0.00  0.00    +0.000 C 
BRANCH  14  15
ATOM     15  C   UNL     1      45.310   2.892   8.638  0.00  0.00    +0.000 A 
ATOM     16  C   UNL     1      45.766   1.566   8.606  0.00  0.00    +0.000 A 
ATOM     17  C   UNL     1      46.800   1.195   7.745  0.00  0.00    +0.000 A 
ATOM     18  C   UNL     1      47.393   2.147   6.916  0.00  0.00    +0.000 A 
ATOM     19  C   UNL     1      46.970   3.473   6.965  0.00  0.00    +0.000 A 
ATOM     20  C   UNL     1      45.934   3.846   7.822  0.00  0.00    +0.000 A 
ENDBRANCH  14  15
ENDBRANCH   9  14
ENDBRANCH   8   9
ENDBRANCH   5   8
ENDBRANCH   1   2
BRANCH   1  23
ATOM     21  O   UNL     1      50.645   6.110  16.258  0.00  0.00    +0.000 OA
ATOM     22  C   UNL     1      49.462   6.126  16.584  0.00  0.00    +0.000 C 
ATOM     23  N   UNL     1      48.474   6.575  15.748  0.00  0.00    +0.000 N 
ATOM     24  H   UNL     1      47.538   6.705  16.114  0.00  0.00    +0.000 HD
BRANCH  22  25
ATOM     25  C   UNL     1      49.031   5.627  17.894  0.00  0.00    +0.000 A 
ATOM     26  C   UNL     1      49.254   4.301  18.242  0.00  0.00    +0.000 A 
ATOM     27  S   UNL     1      48.693   3.903  19.802  0.00  0.00    +0.000 S 
ATOM     28  C   UNL     1      48.178   5.504  20.083  0.00  0.00    +0.000 A 
ATOM     29  N   UNL     1      47.632   5.860  21.276  0.00  0.00    +0.000 NA
ATOM     30  C   UNL     1      47.333   7.112  21.370  0.00  0.00    +0.000 A 
ATOM     31  N   UNL     1      47.520   8.038  20.375  0.00  0.00    +0.000 N 
ATOM     32  C   UNL     1      48.020   7.713  19.136  0.00  0.00    +0.000 A 
ATOM     33  O   UNL     1      48.095   8.546  18.241  0.00  0.00    +0.000 OA
ATOM     34  C   UNL     1      48.405   6.319  18.994  0.00  0.00    +0.000 A 
ATOM     35  H   UNL     1      47.250   8.999  20.510  0.00  0.00    +0.000 HD
ENDBRANCH  22  25
ENDBRANCH   1  23
BRANCH   1  36
ATOM     36  C   UNL     1      48.747   8.763  14.615  0.00  0.00    +0.000 C 
BRANCH  36  37
ATOM     37  O   UNL     1      47.638   9.226  15.383  0.00  0.00    +0.000 OA
ATOM     38  H   UNL     1      46.901   9.374  14.765  0.00  0.00    +0.000 HD
ENDBRANCH  36  37
ENDBRANCH   1  36
TORSDOF 12
ENDMDL
MODEL 3
REMARK VINA RESULT:    -7.332      2.317      3.046
REMARK INTER + INTRA:         -14.090
REMARK INTER:                 -12.688
REMARK INTRA:                  -1.402
REMARK UNBOUND:                -2.043
REMARK  Name = 
REMARK  12 active torsions:
REMARK  status: ('A' for Active; 'I' for Inactive)
REMARK    1  A    between atoms: C_2  and  C_25
REMARK    2  A    between atoms: N_3  and  CA_4
REMARK    3  A    between atoms: CA_4  and  C_5
REMARK    4  A    between atoms: CA_4  and  C_7
REMARK    5  A    between atoms: C_5  and  O_6
REMARK    6  A    between atoms: C_10  and  C_11
REMARK    7  A    between atoms: C_11  and  N_12
REMARK    8  A    between atoms: N_12  and  C_13
REMARK    9  A    between atoms: N_12  and  C_16
REMARK   10  A    between atoms: C_13  and  C_14
REMARK   11  A    between atoms: C_14  and  O_15
REMARK   12  A    between atoms: C_16  and  C_17
REMARK                            x       y       z     vdW  Elec       q    Type
REMARK                         _______ _______ _______ _____ _____    ______ ____
ROOT
ATOM      1  CA  UNL     1      48.993   6.565  14.519  0.00  0.00    +0.000 C 
ENDROOT
BRANCH   1   2
ATOM      2  C   UNL     1      47.796   6.392  13.597  0.00  0.00    +0.000 A 
ATOM      3  C   UNL     1      47.695   7.212  12.462  0.00  0.00    +0.000 A 
ATOM      4  C   UNL     1      46.651   7.047  11.554  0.00  0.00    +0.000 A 
ATOM      5  C   UNL     1      45.702   6.036  11.742  0.00  0.00    +0.000 A 
ATOM      6  C   UNL     1      45.768   5.245  12.895  0.00  0.00    +0.000 A 
ATOM      7  C   UNL     1      46.813   5.413  13.810  0.00  0.00    +0.000 A 
BRANCH   5   8
ATOM      8  C   UNL     1      44.667   5.766  10.671  0.00  0.00    +0.000 C 
BRANCH   8   9
ATOM      9  N   UNL     1      44.554   4.324  10.326  0.00  0.00    +0.000 NA
BRANCH   9  10
ATOM     10  C   UNL     1      43.349   3.727  10.954  0.00  0.00    +0.000 C 
BRANCH  10  11
ATOM     11  C   UNL     1      43.621   2.638  12.008  0.00  0.00    +0.000 C 
BRANCH  11  12
ATOM     12  O   UNL     1      42.946   1.429  11.661  0.00  0.00    +0.000 OA
ATOM     13  H   UNL     1      42.722   1.490  10.716  0.00  0.00    +0.000 HD
ENDBRANCH  11  12
ENDBRANCH  10  11
ENDBRANCH   9  10
BRANCH   9  14
ATOM     14  C   UNL     1      44.505   4.166   8.860  0.00  0.00    +0.000 C 
BRANCH  14  15
ATOM     15  C   UNL     1      45.543   3.223   8.288  0.00  0.00    +0.000 A 
ATOM     16  C   UNL     1      45.537   1.860   8.620  0.00  0.00    +0.000 A 
ATOM     17  C   UNL     1      46.432   0.981   8.010  0.00  0.00    +0.000 A 
ATOM     18  C   UNL     1      47.347   1.456   7.071  0.00  0.00    +0.000 A 
ATOM     19  C   UNL     1      47.383   2.814   6.759  0.00  0.00    +0.000 A 
ATOM     20  C   UNL     1      46.487   3.694   7.365  0.00  0.00    +0.000 A 
ENDBRANCH  14  15
ENDBRANCH   9  14
ENDBRANCH   8   9
ENDBRANCH   5   8
ENDBRANCH   1   2
BRANCH   1  23
ATOM     21  O   UNL     1      50.458   5.564  16.697  0.00  0.00    +0.000 OA
ATOM     22  C   UNL     1      49.362   6.075  16.911  0.00  0.00    +0.000 C 
ATOM     23  N   UNL     1      48.546   6.516  15.903  0.00  0.00    +0.000 N 
ATOM     24  H   UNL     1      47.723   7.061  16.135  0.00  0.00    +0.000 HD
BRANCH  22  25
ATOM     25  C   UNL     1      48.845   6.214  18.277  0.00  0.00    +0.000 A 
ATOM     26  C   UNL     1      48.929   5.148  19.164  0.00  0.00    +0.000 A 
ATOM     27  S   UNL     1      48.286   5.494  20.705  0.00  0.00    +0.000 S 
ATOM     28  C   UNL     1      47.918   7.096  20.251  0.00  0.00    +0.000 A 
ATOM     29  N   UNL     1      47.372   7.964  21.142  0.00  0.00    +0.000 NA
ATOM     30  C   UNL     1      47.192   9.156  20.681  0.00  0.00    +0.000 A 
ATOM     31  N   UNL     1      47.497   9.554  19.403  0.00  0.00    +0.000 N 
ATOM     32  C   UNL     1      48.001   8.698  18.454  0.00  0.00    +0.000 A 
ATOM     33  O   UNL     1      48.183   9.063  17.299  0.00  0.00    +0.000 OA
ATOM     34  C   UNL     1      48.255   7.351  18.938  0.00  0.00    +0.000 A 
ATOM     35  H   UNL     1      47.316  10.498  19.103  0.00  0.00    +0.000 HD
ENDBRANCH  22  25
ENDBRANCH   1  23
BRANCH   1  36
ATOM     36  C   UNL     1      49.804   7.852  14.236  0.00  0.00    +0.000 C 
BRANCH  36  37
ATOM     37  O   UNL     1      51.213   7.642  14.311  0.00  0.00    +0.000 OA
ATOM     38  H   UNL     1      51.600   7.986  13.488  0.00  0.00    +0.000 HD
ENDBRANCH  36  37
ENDBRANCH   1  36
TORSDOF 12
ENDMDL
MODEL 4
REMARK VINA RESULT:    -7.301      1.984      2.476
REMARK INTER + INTRA:         -14.039
REMARK INTER:                 -12.808
REMARK INTRA:                  -1.231
REMARK UNBOUND:                -2.043
REMARK  Name = 
REMARK  12 active torsions:
REMARK  status: ('A' for Active; 'I' for Inactive)
REMARK    1  A    between atoms: C_2  and  C_25
REMARK    2  A    between atoms: N_3  and  CA_4
REMARK    3  A    between atoms: CA_4  and  C_5
REMARK    4  A    between atoms: CA_4  and  C_7
REMARK    5  A    between atoms: C_5  and  O_6
REMARK    6  A    between atoms: C_10  and  C_11
REMARK    7  A    between atoms: C_11  and  N_12
REMARK    8  A    between atoms: N_12  and  C_13
REMARK    9  A    between atoms: N_12  and  C_16
REMARK   10  A    between atoms: C_13  and  C_14
REMARK   11  A    between atoms: C_14  and  O_15
REMARK   12  A    between atoms: C_16  and  C_17
REMARK                            x       y       z     vdW  Elec       q    Type
REMARK                         _______ _______ _______ _____ _____    ______ ____
ROOT
ATOM      1  CA  UNL     1      49.523   6.896  14.173  0.00  0.00    +0.000 C 
ENDROOT
BRANCH   1   2
ATOM      2  C   UNL     1      48.255   6.650  13.371  0.00  0.00    +0.000 A 
ATOM      3  C   UNL     1      48.069   7.353  12.170  0.00  0.00    +0.000 A 
ATOM      4  C   UNL     1      46.954   7.115  11.369  0.00  0.00    +0.000 A 
ATOM      5  C   UNL     1      46.016   6.142  11.732  0.00  0.00    +0.000 A 
ATOM      6  C   UNL     1      46.168   5.469  12.951  0.00  0.00    +0.000 A 
ATOM      7  C   UNL     1      47.284   5.712  13.758  0.00  0.00    +0.000 A 
BRANCH   5   8
ATOM      8  C   UNL     1      44.896   5.782  10.779  0.00  0.00    +0.000 C 
BRANCH   8   9
ATOM      9  N   UNL     1      44.604   4.325  10.754  0.00  0.00    +0.000 NA
BRANCH   9  10
ATOM     10  C   UNL     1      43.514   3.992  11.705  0.00  0.00    +0.000 C 
BRANCH  10  11
ATOM     11  C   UNL     1      42.536   5.138  12.020  0.00  0.00    +0.000 C 
BRANCH  11  12
ATOM     12  O   UNL     1      42.688   5.564  13.374  0.00  0.00    +0.000 OA
ATOM     13  H   UNL     1      43.622   5.433  13.610  0.00  0.00    +0.000 HD
ENDBRANCH  11  12
ENDBRANCH  10  11
ENDBRANCH   9  10
BRANCH   9  14
ATOM     14  C   UNL     1      44.239   3.915   9.385  0.00  0.00    +0.000 C 
BRANCH  14  15
ATOM     15  C   UNL     1      45.344   3.227   8.612  0.00  0.00    +0.000 A 
ATOM     16  C   UNL     1      45.545   1.843   8.722  0.00  0.00    +0.000 A 
ATOM     17  C   UNL     1      46.499   1.202   7.930  0.00  0.00    +0.000 A 
ATOM     18  C   UNL     1      47.267   1.939   7.029  0.00  0.00    +0.000 A 
ATOM     19  C   UNL     1      47.098   3.320   6.936  0.00  0.00    +0.000 A 
ATOM     20  C   UNL     1      46.143   3.962   7.724  0.00  0.00    +0.000 A 
ENDBRANCH  14  15
ENDBRANCH   9  14
ENDBRANCH   8   9
ENDBRANCH   5   8
ENDBRANCH   1   2
BRANCH   1  23
ATOM     21  O   UNL     1      51.153   6.036  16.293  0.00  0.00    +0.000 OA
ATOM     22  C   UNL     1      50.085   6.581  16.557  0.00  0.00    +0.000 C 
ATOM     23  N   UNL     1      49.192   6.959  15.589  0.00  0.00    +0.000 N 
ATOM     24  H   UNL     1      48.398   7.534  15.846  0.00  0.00    +0.000 HD
BRANCH  22  25
ATOM     25  C   UNL     1      49.686   6.832  17.946  0.00  0.00    +0.000 A 
ATOM     26  C   UNL     1      49.596   8.135  18.419  0.00  0.00    +0.000 A 
ATOM     27  S   UNL     1      49.112   8.234  20.051  0.00  0.00    +0.000 S 
ATOM     28  C   UNL     1      48.958   6.539  20.164  0.00  0.00    +0.000 A 
ATOM     29  N   UNL     1      48.529   5.954  21.313  0.00  0.00    +0.000 NA
ATOM     30  C   UNL     1      48.412   4.671  21.244  0.00  0.00    +0.000 A 
ATOM     31  N   UNL     1      48.697   3.918  20.132  0.00  0.00    +0.000 N 
ATOM     32  C   UNL     1      49.183   4.461  18.967  0.00  0.00    +0.000 A 
ATOM     33  O   UNL     1      49.509   3.753  18.022  0.00  0.00    +0.000 OA
ATOM     34  C   UNL     1      49.299   5.910  18.984  0.00  0.00    +0.000 A 
ATOM     35  H   UNL     1      48.598   2.916  20.151  0.00  0.00    +0.000 HD
ENDBRANCH  22  25
ENDBRANCH   1  23
BRANCH   1  36
ATOM     36  C   UNL     1      50.300   8.155  13.720  0.00  0.00    +0.000 C 
BRANCH  36  37
ATOM     37  O   UNL     1      51.714   7.988  13.806  0.00  0.00    +0.000 OA
ATOM     38  H   UNL     1      51.914   7.075  13.536  0.00  0.00    +0.000 HD
ENDBRANCH  36  37
ENDBRANCH   1  36
TORSDOF 12
ENDMDL
MODEL 5
REMARK VINA RESULT:    -7.295      3.042      4.065
REMARK INTER + INTRA:         -14.029
REMARK INTER:                 -13.007
REMARK INTRA:                  -1.021
REMARK UNBOUND:                -2.043
REMARK  Name = 
REMARK  12 active torsions:
REMARK  status: ('A' for Active; 'I' for Inactive)
REMARK    1  A    between atoms: C_2  and  C_25
REMARK    2  A    between atoms: N_3  and  CA_4
REMARK    3  A    between atoms: CA_4  and  C_5
REMARK    4  A    between atoms: CA_4  and  C_7
REMARK    5  A    between atoms: C_5  and  O_6
REMARK    6  A    between atoms: C_10  and  C_11
REMARK    7  A    between atoms: C_11  and  N_12
REMARK    8  A    between atoms: N_12  and  C_13
REMARK    9  A    between atoms: N_12  and  C_16
REMARK   10  A    between atoms: C_13  and  C_14
REMARK   11  A    between atoms: C_14  and  O_15
REMARK   12  A    between atoms: C_16  and  C_17
REMARK                            x       y       z     vdW  Elec       q    Type
REMARK                         _______ _______ _______ _____ _____    ______ ____
ROOT
ATOM      1  CA  UNL     1      48.146   5.170  16.755  0.00  0.00    +0.000 C 
ENDROOT
BRANCH   1   2
ATOM      2  C   UNL     1      47.676   5.216  15.309  0.00  0.00    +0.000 A 
ATOM      3  C   UNL     1      47.008   4.100  14.781  0.00  0.00    +0.000 A 
ATOM      4  C   UNL     1      46.502   4.120  13.482  0.00  0.00    +0.000 A 
ATOM      5  C   UNL     1      46.622   5.269  12.693  0.00  0.00    +0.000 A 
ATOM      6  C   UNL     1      47.327   6.370  13.195  0.00  0.00    +0.000 A 
ATOM      7  C   UNL     1      47.840   6.349  14.496  0.00  0.00    +0.000 A 
BRANCH   5   8
ATOM      8  C   UNL     1      45.933   5.334  11.347  0.00  0.00    +0.000 C 
BRANCH   8   9
ATOM      9  N   UNL     1      44.738   4.454  11.266  0.00  0.00    +0.000 NA
BRANCH   9  10
ATOM     10  C   UNL     1      43.666   4.941  12.171  0.00  0.00    +0.000 C 
BRANCH  10  11
ATOM     11  C   UNL     1      42.536   5.737  11.493  0.00  0.00    +0.000 C 
BRANCH  11  12
ATOM     12  O   UNL     1      42.946   7.086  11.267  0.00  0.00    +0.000 OA
ATOM     13  H   UNL     1      43.113   7.176  10.313  0.00  0.00    +0.000 HD
ENDBRANCH  11  12
ENDBRANCH  10  11
ENDBRANCH   9  10
BRANCH   9  14
ATOM     14  C   UNL     1      44.253   4.400   9.874  0.00  0.00    +0.000 C 
BRANCH  14  15
ATOM     15  C   UNL     1      45.105   3.569   8.938  0.00  0.00    +0.000 A 
ATOM     16  C   UNL     1      45.861   4.176   7.923  0.00  0.00    +0.000 A 
ATOM     17  C   UNL     1      46.721   3.414   7.132  0.00  0.00    +0.000 A 
ATOM     18  C   UNL     1      46.827   2.039   7.340  0.00  0.00    +0.000 A 
ATOM     19  C   UNL     1      46.055   1.422   8.323  0.00  0.00    +0.000 A 
ATOM     20  C   UNL     1      45.197   2.182   9.117  0.00  0.00    +0.000 A 
ENDBRANCH  14  15
ENDBRANCH   9  14
ENDBRANCH   8   9
ENDBRANCH   5   8
ENDBRANCH   1   2
BRANCH   1  23
ATOM     21  O   UNL     1      50.069   5.841  18.689  0.00  0.00    +0.000 OA
ATOM     22  C   UNL     1      50.366   5.020  17.826  0.00  0.00    +0.000 C 
ATOM     23  N   UNL     1      49.520   4.693  16.798  0.00  0.00    +0.000 N 
ATOM     24  H   UNL     1      49.749   3.908  16.200  0.00  0.00    +0.000 HD
BRANCH  22  25
ATOM     25  C   UNL     1      51.675   4.357  17.829  0.00  0.00    +0.000 A 
ATOM     26  C   UNL     1      52.824   5.089  18.100  0.00  0.00    +0.000 A 
ATOM     27  S   UNL     1      54.250   4.153  18.067  0.00  0.00    +0.000 S 
ATOM     28  C   UNL     1      53.371   2.730  17.738  0.00  0.00    +0.000 A 
ATOM     29  N   UNL     1      54.003   1.531  17.628  0.00  0.00    +0.000 NA
ATOM     30  C   UNL     1      53.213   0.531  17.427  0.00  0.00    +0.000 A 
ATOM     31  N   UNL     1      51.848   0.622  17.314  0.00  0.00    +0.000 N 
ATOM     32  C   UNL     1      51.172   1.818  17.366  0.00  0.00    +0.000 A 
ATOM     33  O   UNL     1      49.964   1.875  17.177  0.00  0.00    +0.000 OA
ATOM     34  C   UNL     1      52.017   2.972  17.627  0.00  0.00    +0.000 A 
ATOM     35  H   UNL     1      51.291  -0.199  17.142  0.00  0.00    +0.000 HD
ENDBRANCH  22  25
ENDBRANCH   1  23
BRANCH   1  36
ATOM     36  C   UNL     1      47.229   4.325  17.671  0.00  0.00    +0.000 C 
BRANCH  36  37
ATOM     37  O   UNL     1      46.408   5.128  18.517  0.00  0.00    +0.000 OA
ATOM     38  H   UNL     1      46.980   5.810  18.910  0.00  0.00    +0.000 HD
ENDBRANCH  36  37
ENDBRANCH   1  36
TORSDOF 12
ENDMDL
MODEL 6
REMARK VINA RESULT:    -7.241      2.732      3.866
REMARK INTER + INTRA:         -13.940
REMARK INTER:                 -12.603
REMARK INTRA:                  -1.336
REMARK UNBOUND:                -2.043
REMARK  Name = 
REMARK  12 active torsions:
REMARK  status: ('A' for Active; 'I' for Inactive)
REMARK    1  A    between atoms: C_2  and  C_25
REMARK    2  A    between atoms: N_3  and  CA_4
REMARK    3  A    between atoms: CA_4  and  C_5
REMARK    4  A    between atoms: CA_4  and  C_7
REMARK    5  A    between atoms: C_5  and  O_6
REMARK    6  A    between atoms: C_10  and  C_11
REMARK    7  A    between atoms: C_11  and  N_12
REMARK    8  A    between atoms: N_12  and  C_13
REMARK    9  A    between atoms: N_12  and  C_16
REMARK   10  A    between atoms: C_13  and  C_14
REMARK   11  A    between atoms: C_14  and  O_15
REMARK   12  A    between atoms: C_16  and  C_17
REMARK                            x       y       z     vdW  Elec       q    Type
REMARK                         _______ _______ _______ _____ _____    ______ ____
ROOT
ATOM      1  CA  UNL     1      47.789   4.665  16.218  0.00  0.00    +0.000 C 
ENDROOT
BRANCH   1   2
ATOM      2  C   UNL     1      47.238   4.869  14.815  0.00  0.00    +0.000 A 
ATOM      3  C   UNL     1      46.578   3.801  14.187  0.00  0.00    +0.000 A 
ATOM      4  C   UNL     1      46.002   3.959  12.929  0.00  0.00    +0.000 A 
ATOM      5  C   UNL     1      46.041   5.200  12.283  0.00  0.00    +0.000 A 
ATOM      6  C   UNL     1      46.737   6.258  12.880  0.00  0.00    +0.000 A 
ATOM      7  C   UNL     1      47.321   6.098  14.141  0.00  0.00    +0.000 A 
BRANCH   5   8
ATOM      8  C   UNL     1      45.278   5.402  10.992  0.00  0.00    +0.000 C 
BRANCH   8   9
ATOM      9  N   UNL     1      44.492   4.205  10.592  0.00  0.00    +0.000 NA
BRANCH   9  10
ATOM     10  C   UNL     1      43.148   4.225  11.222  0.00  0.00    +0.000 C 
BRANCH  10  11
ATOM     11  C   UNL     1      42.702   5.586  11.788  0.00  0.00    +0.000 C 
BRANCH  11  12
ATOM     12  O   UNL     1      42.666   5.543  13.215  0.00  0.00    +0.000 OA
ATOM     13  H   UNL     1      41.774   5.820  13.486  0.00  0.00    +0.000 HD
ENDBRANCH  11  12
ENDBRANCH  10  11
ENDBRANCH   9  10
BRANCH   9  14
ATOM     14  C   UNL     1      44.372   4.157   9.122  0.00  0.00    +0.000 C 
BRANCH  14  15
ATOM     15  C   UNL     1      45.399   3.285   8.430  0.00  0.00    +0.000 A 
ATOM     16  C   UNL     1      45.497   1.917   8.725  0.00  0.00    +0.000 A 
ATOM     17  C   UNL     1      46.376   1.102   8.010  0.00  0.00    +0.000 A 
ATOM     18  C   UNL     1      47.171   1.647   7.002  0.00  0.00    +0.000 A 
ATOM     19  C   UNL     1      47.105   3.012   6.725  0.00  0.00    +0.000 A 
ATOM     20  C   UNL     1      46.225   3.828   7.436  0.00  0.00    +0.000 A 
ENDBRANCH  14  15
ENDBRANCH   9  14
ENDBRANCH   8   9
ENDBRANCH   5   8
ENDBRANCH   1   2
BRANCH   1  23
ATOM     21  O   UNL     1      48.879   6.569  17.972  0.00  0.00    +0.000 OA
ATOM     22  C   UNL     1      49.632   5.982  17.201  0.00  0.00    +0.000 C 
ATOM     23  N   UNL     1      49.177   5.098  16.258  0.00  0.00    +0.000 N 
ATOM     24  H   UNL     1      49.846   4.531  15.748  0.00  0.00    +0.000 HD
BRANCH  22  25
ATOM     25  C   UNL     1      51.079   6.222  17.225  0.00  0.00    +0.000 A 
ATOM     26  C   UNL     1      51.573   7.511  17.070  0.00  0.00    +0.000 A 
ATOM     27  S   UNL     1      53.275   7.600  17.132  0.00  0.00    +0.000 S 
ATOM     28  C   UNL     1      53.405   5.923  17.418  0.00  0.00    +0.000 A 
ATOM     29  N   UNL     1      54.618   5.342  17.611  0.00  0.00    +0.000 NA
ATOM     30  C   UNL     1      54.567   4.078  17.866  0.00  0.00    +0.000 A 
ATOM     31  N   UNL     1      53.411   3.340  17.934  0.00  0.00    +0.000 N 
ATOM     32  C   UNL     1      52.168   3.874  17.694  0.00  0.00    +0.000 A 
ATOM     33  O   UNL     1      51.165   3.172  17.677  0.00  0.00    +0.000 OA
ATOM     34  C   UNL     1      52.172   5.305  17.436  0.00  0.00    +0.000 A 
ATOM     35  H   UNL     1      53.444   2.351  18.123  0.00  0.00    +0.000 HD
ENDBRANCH  22  25
ENDBRANCH   1  23
BRANCH   1  36
ATOM     36  C   UNL     1      47.637   3.213  16.731  0.00  0.00    +0.000 C 
BRANCH  36  37
ATOM     37  O   UNL     1      46.542   3.060  17.631  0.00  0.00    +0.000 OA
ATOM     38  H   UNL     1      45.929   2.417  17.234  0.00  0.00    +0.000 HD
ENDBRANCH  36  37
ENDBRANCH   1  36
TORSDOF 12
ENDMDL
MODEL 7
REMARK VINA RESULT:    -6.962      2.487      4.208
REMARK INTER + INTRA:         -13.482
REMARK INTER:                 -11.808
REMARK INTRA:                  -1.673
REMARK UNBOUND:                -2.043
REMARK  Name = 
REMARK  12 active torsions:
REMARK  status: ('A' for Active; 'I' for Inactive)
REMARK    1  A    between atoms: C_2  and  C_25
REMARK    2  A    between atoms: N_3  and  CA_4
REMARK    3  A    between atoms: CA_4  and  C_5
REMARK    4  A    between atoms: CA_4  and  C_7
REMARK    5  A    between atoms: C_5  and  O_6
REMARK    6  A    between atoms: C_10  and  C_11
REMARK    7  A    between atoms: C_11  and  N_12
REMARK    8  A    between atoms: N_12  and  C_13
REMARK    9  A    between atoms: N_12  and  C_16
REMARK   10  A    between atoms: C_13  and  C_14
REMARK   11  A    between atoms: C_14  and  O_15
REMARK   12  A    between atoms: C_16  and  C_17
REMARK                            x       y       z     vdW  Elec       q    Type
REMARK                         _______ _______ _______ _____ _____    ______ ____
ROOT
ATOM      1  CA  UNL     1      47.692   4.566  16.249  0.00  0.00    +0.000 C 
ENDROOT
BRANCH   1   2
ATOM      2  C   UNL     1      47.087   4.698  14.860  0.00  0.00    +0.000 A 
ATOM      3  C   UNL     1      46.988   5.975  14.286  0.00  0.00    +0.000 A 
ATOM      4  C   UNL     1      46.500   6.138  12.991  0.00  0.00    +0.000 A 
ATOM      5  C   UNL     1      46.132   5.025  12.226  0.00  0.00    +0.000 A 
ATOM      6  C   UNL     1      46.183   3.752  12.807  0.00  0.00    +0.000 A 
ATOM      7  C   UNL     1      46.668   3.588  14.109  0.00  0.00    +0.000 A 
BRANCH   5   8
ATOM      8  C   UNL     1      45.754   5.202  10.771  0.00  0.00    +0.000 C 
BRANCH   8   9
ATOM      9  N   UNL     1      44.437   4.599  10.438  0.00  0.00    +0.000 NA
BRANCH   9  10
ATOM     10  C   UNL     1      43.330   5.426  10.981  0.00  0.00    +0.000 C 
BRANCH  10  11
ATOM     11  C   UNL     1      42.621   4.853  12.222  0.00  0.00    +0.000 C 
BRANCH  11  12
ATOM     12  O   UNL     1      42.829   5.703  13.350  0.00  0.00    +0.000 OA
ATOM     13  H   UNL     1      43.770   5.947  13.353  0.00  0.00    +0.000 HD
ENDBRANCH  11  12
ENDBRANCH  10  11
ENDBRANCH   9  10
BRANCH   9  14
ATOM     14  C   UNL     1      44.309   4.460   8.975  0.00  0.00    +0.000 C 
BRANCH  14  15
ATOM     15  C   UNL     1      45.273   3.478   8.345  0.00  0.00    +0.000 A 
ATOM     16  C   UNL     1      46.221   3.903   7.401  0.00  0.00    +0.000 A 
ATOM     17  C   UNL     1      47.171   3.011   6.903  0.00  0.00    +0.000 A 
ATOM     18  C   UNL     1      47.178   1.685   7.334  0.00  0.00    +0.000 A 
ATOM     19  C   UNL     1      46.220   1.244   8.246  0.00  0.00    +0.000 A 
ATOM     20  C   UNL     1      45.272   2.135   8.748  0.00  0.00    +0.000 A 
ENDBRANCH  14  15
ENDBRANCH   9  14
ENDBRANCH   8   9
ENDBRANCH   5   8
ENDBRANCH   1   2
BRANCH   1  23
ATOM     21  O   UNL     1      48.841   6.146  18.267  0.00  0.00    +0.000 OA
ATOM     22  C   UNL     1      49.536   5.820  17.309  0.00  0.00    +0.000 C 
ATOM     23  N   UNL     1      49.037   5.119  16.242  0.00  0.00    +0.000 N 
ATOM     24  H   UNL     1      49.679   4.748  15.551  0.00  0.00    +0.000 HD
BRANCH  22  25
ATOM     25  C   UNL     1      50.952   6.196  17.238  0.00  0.00    +0.000 A 
ATOM     26  C   UNL     1      51.827   5.805  18.244  0.00  0.00    +0.000 A 
ATOM     27  S   UNL     1      53.431   6.325  17.990  0.00  0.00    +0.000 S 
ATOM     28  C   UNL     1      53.017   7.048  16.502  0.00  0.00    +0.000 A 
ATOM     29  N   UNL     1      53.964   7.648  15.734  0.00  0.00    +0.000 NA
ATOM     30  C   UNL     1      53.523   8.110  14.612  0.00  0.00    +0.000 A 
ATOM     31  N   UNL     1      52.217   8.035  14.194  0.00  0.00    +0.000 N 
ATOM     32  C   UNL     1      51.218   7.484  14.961  0.00  0.00    +0.000 A 
ATOM     33  O   UNL     1      50.049   7.510  14.597  0.00  0.00    +0.000 OA
ATOM     34  C   UNL     1      51.673   6.918  16.220  0.00  0.00    +0.000 A 
ATOM     35  H   UNL     1      51.937   8.430  13.311  0.00  0.00    +0.000 HD
ENDBRANCH  22  25
ENDBRANCH   1  23
BRANCH   1  36
ATOM     36  C   UNL     1      47.683   3.115  16.786  0.00  0.00    +0.000 C 
BRANCH  36  37
ATOM     37  O   UNL     1      46.575   2.853  17.645  0.00  0.00    +0.000 OA
ATOM     38  H   UNL     1      46.886   2.969  18.560  0.00  0.00    +0.000 HD
ENDBRANCH  36  37
ENDBRANCH   1  36
TORSDOF 12
ENDMDL
MODEL 8
REMARK VINA RESULT:    -6.858      3.461      4.871
REMARK INTER + INTRA:         -13.311
REMARK INTER:                 -11.692
REMARK INTRA:                  -1.619
REMARK UNBOUND:                -2.043
REMARK  Name = 
REMARK  12 active torsions:
REMARK  status: ('A' for Active; 'I' for Inactive)
REMARK    1  A    between atoms: C_2  and  C_25
REMARK    2  A    between atoms: N_3  and  CA_4
REMARK    3  A    between atoms: CA_4  and  C_5
REMARK    4  A    between atoms: CA_4  and  C_7
REMARK    5  A    between atoms: C_5  and  O_6
REMARK    6  A    between atoms: C_10  and  C_11
REMARK    7  A    between atoms: C_11  and  N_12
REMARK    8  A    between atoms: N_12  and  C_13
REMARK    9  A    between atoms: N_12  and  C_16
REMARK   10  A    between atoms: C_13  and  C_14
REMARK   11  A    between atoms: C_14  and  O_15
REMARK   12  A    between atoms: C_16  and  C_17
REMARK                            x       y       z     vdW  Elec       q    Type
REMARK                         _______ _______ _______ _____ _____    ______ ____
ROOT
ATOM      1  CA  UNL     1      48.840   7.312  14.631  0.00  0.00    +0.000 C 
ENDROOT
BRANCH   1   2
ATOM      2  C   UNL     1      47.711   6.921  13.689  0.00  0.00    +0.000 A 
ATOM      3  C   UNL     1      46.980   7.937  13.055  0.00  0.00    +0.000 A 
ATOM      4  C   UNL     1      45.980   7.628  12.135  0.00  0.00    +0.000 A 
ATOM      5  C   UNL     1      45.711   6.296  11.802  0.00  0.00    +0.000 A 
ATOM      6  C   UNL     1      46.403   5.275  12.464  0.00  0.00    +0.000 A 
ATOM      7  C   UNL     1      47.404   5.584  13.391  0.00  0.00    +0.000 A 
BRANCH   5   8
ATOM      8  C   UNL     1      44.735   5.980  10.689  0.00  0.00    +0.000 C 
BRANCH   8   9
ATOM      9  N   UNL     1      44.554   4.520  10.476  0.00  0.00    +0.000 NA
BRANCH   9  10
ATOM     10  C   UNL     1      43.381   4.021  11.237  0.00  0.00    +0.000 C 
BRANCH  10  11
ATOM     11  C   UNL     1      43.637   2.777  12.108  0.00  0.00    +0.000 C 
BRANCH  11  12
ATOM     12  O   UNL     1      42.841   1.681  11.655  0.00  0.00    +0.000 OA
ATOM     13  H   UNL     1      43.306   1.286  10.898  0.00  0.00    +0.000 HD
ENDBRANCH  11  12
ENDBRANCH  10  11
ENDBRANCH   9  10
BRANCH   9  14
ATOM     14  C   UNL     1      44.391   4.244   9.035  0.00  0.00    +0.000 C 
BRANCH  14  15
ATOM     15  C   UNL     1      45.448   3.338   8.440  0.00  0.00    +0.000 A 
ATOM     16  C   UNL     1      45.473   1.968   8.739  0.00  0.00    +0.000 A 
ATOM     17  C   UNL     1      46.386   1.123   8.107  0.00  0.00    +0.000 A 
ATOM     18  C   UNL     1      47.288   1.641   7.178  0.00  0.00    +0.000 A 
ATOM     19  C   UNL     1      47.293   3.006   6.898  0.00  0.00    +0.000 A 
ATOM     20  C   UNL     1      46.379   3.852   7.526  0.00  0.00    +0.000 A 
ENDBRANCH  14  15
ENDBRANCH   9  14
ENDBRANCH   8   9
ENDBRANCH   5   8
ENDBRANCH   1   2
BRANCH   1  23
ATOM     21  O   UNL     1      50.257   9.702  14.222  0.00  0.00    +0.000 OA
ATOM     22  C   UNL     1      50.731   8.657  13.788  0.00  0.00    +0.000 C 
ATOM     23  N   UNL     1      50.072   7.458  13.872  0.00  0.00    +0.000 N 
ATOM     24  H   UNL     1      50.565   6.605  13.634  0.00  0.00    +0.000 HD
BRANCH  22  25
ATOM     25  C   UNL     1      52.036   8.638  13.118  0.00  0.00    +0.000 A 
ATOM     26  C   UNL     1      53.172   9.065  13.794  0.00  0.00    +0.000 A 
ATOM     27  S   UNL     1      54.596   8.966  12.861  0.00  0.00    +0.000 S 
ATOM     28  C   UNL     1      53.747   8.302  11.539  0.00  0.00    +0.000 A 
ATOM     29  N   UNL     1      54.401   7.941  10.404  0.00  0.00    +0.000 NA
ATOM     30  C   UNL     1      53.646   7.407   9.503  0.00  0.00    +0.000 A 
ATOM     31  N   UNL     1      52.293   7.213   9.632  0.00  0.00    +0.000 N 
ATOM     32  C   UNL     1      51.583   7.611  10.739  0.00  0.00    +0.000 A 
ATOM     33  O   UNL     1      50.364   7.502  10.787  0.00  0.00    +0.000 OA
ATOM     34  C   UNL     1      52.397   8.186  11.797  0.00  0.00    +0.000 A 
ATOM     35  H   UNL     1      51.760   6.804   8.882  0.00  0.00    +0.000 HD
ENDBRANCH  22  25
ENDBRANCH   1  23
BRANCH   1  36
ATOM     36  C   UNL     1      49.021   6.328  15.812  0.00  0.00    +0.000 C 
BRANCH  36  37
ATOM     37  O   UNL     1      47.987   6.443  16.787  0.00  0.00    +0.000 OA
ATOM     38  H   UNL     1      48.200   7.211  17.345  0.00  0.00    +0.000 HD
ENDBRANCH  36  37
ENDBRANCH   1  36
TORSDOF 12
ENDMDL
MODEL 9
REMARK VINA RESULT:    -6.738      3.522      5.864
REMARK INTER + INTRA:         -13.114
REMARK INTER:                 -11.043
REMARK INTRA:                  -2.071
REMARK UNBOUND:                -2.043
REMARK  Name = 
REMARK  12 active torsions:
REMARK  status: ('A' for Active; 'I' for Inactive)
REMARK    1  A    between atoms: C_2  and  C_25
REMARK    2  A    between atoms: N_3  and  CA_4
REMARK    3  A    between atoms: CA_4  and  C_5
REMARK    4  A    between atoms: CA_4  and  C_7
REMARK    5  A    between atoms: C_5  and  O_6
REMARK    6  A    between atoms: C_10  and  C_11
REMARK    7  A    between atoms: C_11  and  N_12
REMARK    8  A    between atoms: N_12  and  C_13
REMARK    9  A    between atoms: N_12  and  C_16
REMARK   10  A    between atoms: C_13  and  C_14
REMARK   11  A    between atoms: C_14  and  O_15
REMARK   12  A    between atoms: C_16  and  C_17
REMARK                            x       y       z     vdW  Elec       q    Type
REMARK                         _______ _______ _______ _____ _____    ______ ____
ROOT
ATOM      1  CA  UNL     1      48.726   4.375  17.575  0.00  0.00    +0.000 C 
ENDROOT
BRANCH   1   2
ATOM      2  C   UNL     1      48.215   4.989  16.280  0.00  0.00    +0.000 A 
ATOM      3  C   UNL     1      48.693   6.253  15.898  0.00  0.00    +0.000 A 
ATOM      4  C   UNL     1      48.303   6.827  14.689  0.00  0.00    +0.000 A 
ATOM      5  C   UNL     1      47.453   6.136  13.819  0.00  0.00    +0.000 A 
ATOM      6  C   UNL     1      46.934   4.897  14.213  0.00  0.00    +0.000 A 
ATOM      7  C   UNL     1      47.321   4.322  15.428  0.00  0.00    +0.000 A 
BRANCH   5   8
ATOM      8  C   UNL     1      47.163   6.700  12.444  0.00  0.00    +0.000 C 
BRANCH   8   9
ATOM      9  N   UNL     1      45.920   7.514  12.403  0.00  0.00    +0.000 NA
BRANCH   9  10
ATOM     10  C   UNL     1      46.239   8.947  12.178  0.00  0.00    +0.000 C 
BRANCH  10  11
ATOM     11  C   UNL     1      45.096   9.796  11.593  0.00  0.00    +0.000 C 
BRANCH  11  12
ATOM     12  O   UNL     1      44.205  10.212  12.629  0.00  0.00    +0.000 OA
ATOM     13  H   UNL     1      44.303  11.176  12.718  0.00  0.00    +0.000 HD
ENDBRANCH  11  12
ENDBRANCH  10  11
ENDBRANCH   9  10
BRANCH   9  14
ATOM     14  C   UNL     1      45.030   7.010  11.340  0.00  0.00    +0.000 C 
BRANCH  14  15
ATOM     15  C   UNL     1      44.477   5.621  11.582  0.00  0.00    +0.000 A 
ATOM     16  C   UNL     1      44.771   4.566  10.705  0.00  0.00    +0.000 A 
ATOM     17  C   UNL     1      44.343   3.269  10.991  0.00  0.00    +0.000 A 
ATOM     18  C   UNL     1      43.609   3.016  12.149  0.00  0.00    +0.000 A 
ATOM     19  C   UNL     1      43.282   4.062  13.010  0.00  0.00    +0.000 A 
ATOM     20  C   UNL     1      43.713   5.359  12.728  0.00  0.00    +0.000 A 
ENDBRANCH  14  15
ENDBRANCH   9  14
ENDBRANCH   8   9
ENDBRANCH   5   8
ENDBRANCH   1   2
BRANCH   1  23
ATOM     21  O   UNL     1      50.668   4.673  19.582  0.00  0.00    +0.000 OA
ATOM     22  C   UNL     1      51.007   4.195  18.503  0.00  0.00    +0.000 C 
ATOM     23  N   UNL     1      50.146   4.087  17.442  0.00  0.00    +0.000 N 
ATOM     24  H   UNL     1      50.429   3.554  16.628  0.00  0.00    +0.000 HD
BRANCH  22  25
ATOM     25  C   UNL     1      52.381   3.735  18.277  0.00  0.00    +0.000 A 
ATOM     26  C   UNL     1      53.450   4.584  18.533  0.00  0.00    +0.000 A 
ATOM     27  S   UNL     1      54.970   3.878  18.220  0.00  0.00    +0.000 S 
ATOM     28  C   UNL     1      54.250   2.397  17.778  0.00  0.00    +0.000 A 
ATOM     29  N   UNL     1      55.015   1.328  17.431  0.00  0.00    +0.000 NA
ATOM     30  C   UNL     1      54.343   0.258  17.167  0.00  0.00    +0.000 A 
ATOM     31  N   UNL     1      52.974   0.164  17.208  0.00  0.00    +0.000 N 
ATOM     32  C   UNL     1      52.160   1.231  17.503  0.00  0.00    +0.000 A 
ATOM     33  O   UNL     1      50.940   1.137  17.447  0.00  0.00    +0.000 OA
ATOM     34  C   UNL     1      52.874   2.452  17.841  0.00  0.00    +0.000 A 
ATOM     35  H   UNL     1      52.512  -0.700  16.976  0.00  0.00    +0.000 HD
ENDBRANCH  22  25
ENDBRANCH   1  23
BRANCH   1  36
ATOM     36  C   UNL     1      47.936   3.119  18.010  0.00  0.00    +0.000 C 
BRANCH  36  37
ATOM     37  O   UNL     1      48.137   2.792  19.384  0.00  0.00    +0.000 OA
ATOM     38  H   UNL     1      47.298   2.962  19.847  0.00  0.00    +0.000 HD
ENDBRANCH  36  37
ENDBRANCH   1  36
TORSDOF 12
ENDMDL
