MODEL 1
REMARK VINA RESULT:    -8.355      0.000      0.000
REMARK INTER + INTRA:         -11.527
REMARK INTER:                 -10.797
REMARK INTRA:                  -0.730
REMARK UNBOUND:                -0.730
REMARK  Name = 
REMARK  6 active torsions:
REMARK  status: ('A' for Active; 'I' for Inactive)
REMARK    1  A    between atoms: C_1  and  N_2
REMARK    2  A    between atoms: N_5  and  C_6
REMARK    3  A    between atoms: C_10  and  C_11
REMARK    4  A    between atoms: C_11  and  C_12
REMARK    5  A    between atoms: C_12  and  N_13
REMARK    6  A    between atoms: C_17  and  C_18
REMARK                            x       y       z     vdW  Elec       q    Type
REMARK                         _______ _______ _______ _____ _____    ______ ____
ROOT
ATOM      1  C   UNL     1      43.808   5.380  12.087  0.00  0.00    +0.000 C 
ENDROOT
BRANCH   1   6
ATOM      2  C   UNL     1      47.171   5.742  13.888  0.00  0.00    +0.000 A 
ATOM      3  C   UNL     1      47.905   6.447  12.924  0.00  0.00    +0.000 A 
ATOM      4  C   UNL     1      47.335   6.849  11.717  0.00  0.00    +0.000 A 
ATOM      5  C   UNL     1      46.011   6.535  11.433  0.00  0.00    +0.000 A 
ATOM      6  C   UNL     1      45.242   5.808  12.346  0.00  0.00    +0.000 A 
ATOM      7  C   UNL     1      45.836   5.441  13.568  0.00  0.00    +0.000 A 
BRANCH   2  12
ATOM      8  C   UNL     1      48.119   5.207  19.335  0.00  0.00    +0.000 C 
ATOM      9  N   UNL     1      48.360   5.001  17.912  0.00  0.00    +0.000 NA
ATOM     10  C   UNL     1      47.201   4.332  17.275  0.00  0.00    +0.000 C 
ATOM     11  C   UNL     1      47.417   4.112  15.761  0.00  0.00    +0.000 C 
ATOM     12  N   UNL     1      47.705   5.402  15.113  0.00  0.00    +0.000 N 
ATOM     13  C   UNL     1      48.834   6.133  15.709  0.00  0.00    +0.000 C 
ATOM     14  C   UNL     1      48.599   6.293  17.229  0.00  0.00    +0.000 C 
ENDBRANCH   2  12
ENDBRANCH   1   6
BRANCH   1  15
ATOM     15  C   UNL     1      43.547   4.895  10.660  0.00  0.00    +0.000 C 
BRANCH  15  16
ATOM     16  N   UNL     1      43.772   3.456  10.504  0.00  0.00    +0.000 N 
ATOM     17  C   UNL     1      44.721   3.196   9.491  0.00  0.00    +0.000 A 
ATOM     18  C   UNL     1      45.059   1.879   9.201  0.00  0.00    +0.000 A 
ATOM     19  C   UNL     1      45.995   1.618   8.195  0.00  0.00    +0.000 A 
ATOM     20  C   UNL     1      46.578   2.676   7.494  0.00  0.00    +0.000 A 
ATOM     21  C   UNL     1      46.194   3.952   7.859  0.00  0.00    +0.000 A 
ATOM     22  N   UNL     1      45.297   4.225   8.834  0.00  0.00    +0.000 NA
ATOM     23  H   UNL     1      42.918   2.953  10.278  0.00  0.00    +0.000 HD
BRANCH  20  24
ATOM     24  C   UNL     1      47.550   2.400   6.413  0.00  0.00    +0.000 C 
ATOM     25  N   UNL     1      47.420   3.054   5.213  0.00  0.00    +0.000 N 
ATOM     26  O   UNL     1      48.461   1.598   6.571  0.00  0.00    +0.000 OA
ATOM     27  H   UNL     1      46.711   3.730   4.973  0.00  0.00    +0.000 HD
ATOM     28  H   UNL     1      48.103   2.829   4.505  0.00  0.00    +0.000 HD
ENDBRANCH  20  24
ENDBRANCH  15  16
ENDBRANCH   1  15
TORSDOF 5
ENDMDL
MODEL 2
REMARK VINA RESULT:    -8.339      2.584      4.291
REMARK INTER + INTRA:         -11.507
REMARK INTER:                 -10.878
REMARK INTRA:                  -0.628
REMARK UNBOUND:                -0.730
REMARK  Name = 
REMARK  6 active torsions:
REMARK  status: ('A' for Active; 'I' for Inactive)
REMARK    1  A    between atoms: C_1  and  N_2
REMARK    2  A    between atoms: N_5  and  C_6
REMARK    3  A    between atoms: C_10  and  C_11
REMARK    4  A    between atoms: C_11  and  C_12
REMARK    5  A    between atoms: C_12  and  N_13
REMARK    6  A    between atoms: C_17  and  C_18
REMARK                            x       y       z     vdW  Elec       q    Type
REMARK                         _______ _______ _______ _____ _____    ______ ____
ROOT
ATOM      1  C   UNL     1      43.427   4.459  12.637  0.00  0.00    +0.000 C 
ENDROOT
BRANCH   1   6
ATOM      2  C   UNL     1      46.168   7.118  12.961  0.00  0.00    +0.000 A 
ATOM      3  C   UNL     1      47.246   6.326  13.380  0.00  0.00    +0.000 A 
ATOM      4  C   UNL     1      47.130   4.944  13.524  0.00  0.00    +0.000 A 
ATOM      5  C   UNL     1      45.915   4.317  13.271  0.00  0.00    +0.000 A 
ATOM      6  C   UNL     1      44.799   5.063  12.880  0.00  0.00    +0.000 A 
ATOM      7  C   UNL     1      44.955   6.451  12.715  0.00  0.00    +0.000 A 
BRANCH   2  12
ATOM      8  C   UNL     1      46.867  12.113  10.635  0.00  0.00    +0.000 C 
ATOM      9  N   UNL     1      46.625  11.167  11.718  0.00  0.00    +0.000 NA
ATOM     10  C   UNL     1      45.400  10.375  11.459  0.00  0.00    +0.000 C 
ATOM     11  C   UNL     1      45.122   9.351  12.581  0.00  0.00    +0.000 C 
ATOM     12  N   UNL     1      46.292   8.474  12.748  0.00  0.00    +0.000 N 
ATOM     13  C   UNL     1      47.552   9.196  12.988  0.00  0.00    +0.000 C 
ATOM     14  C   UNL     1      47.769  10.239  11.868  0.00  0.00    +0.000 C 
ENDBRANCH   2  12
ENDBRANCH   1   6
BRANCH   1  15
ATOM     15  C   UNL     1      43.207   3.955  11.210  0.00  0.00    +0.000 C 
BRANCH  15  16
ATOM     16  N   UNL     1      43.912   4.763  10.212  0.00  0.00    +0.000 N 
ATOM     17  C   UNL     1      44.748   3.959   9.406  0.00  0.00    +0.000 A 
ATOM     18  C   UNL     1      45.500   4.558   8.402  0.00  0.00    +0.000 A 
ATOM     19  C   UNL     1      46.333   3.766   7.606  0.00  0.00    +0.000 A 
ATOM     20  C   UNL     1      46.403   2.389   7.825  0.00  0.00    +0.000 A 
ATOM     21  C   UNL     1      45.611   1.877   8.835  0.00  0.00    +0.000 A 
ATOM     22  N   UNL     1      44.793   2.626   9.610  0.00  0.00    +0.000 NA
ATOM     23  H   UNL     1      44.480   5.492  10.635  0.00  0.00    +0.000 HD
BRANCH  20  24
ATOM     24  C   UNL     1      47.303   1.554   6.999  0.00  0.00    +0.000 C 
ATOM     25  N   UNL     1      48.478   2.092   6.536  0.00  0.00    +0.000 N 
ATOM     26  O   UNL     1      47.015   0.396   6.721  0.00  0.00    +0.000 OA
ATOM     27  H   UNL     1      48.814   3.029   6.701  0.00  0.00    +0.000 HD
ATOM     28  H   UNL     1      49.056   1.487   5.972  0.00  0.00    +0.000 HD
ENDBRANCH  20  24
ENDBRANCH  15  16
ENDBRANCH   1  15
TORSDOF 5
ENDMDL
MODEL 3
REMARK VINA RESULT:    -7.416      2.583      8.158
REMARK INTER + INTRA:         -10.314
REMARK INTER:                  -9.866
REMARK INTRA:                  -0.448
REMARK UNBOUND:                -0.730
REMARK  Name = 
REMARK  6 active torsions:
REMARK  status: ('A' for Active; 'I' for Inactive)
REMARK    1  A    between atoms: C_1  and  N_2
REMARK    2  A    between atoms: N_5  and  C_6
REMARK    3  A    between atoms: C_10  and  C_11
REMARK    4  A    between atoms: C_11  and  C_12
REMARK    5  A    between atoms: C_12  and  N_13
REMARK    6  A    between atoms: C_17  and  C_18
REMARK                            x       y       z     vdW  Elec       q    Type
REMARK                         _______ _______ _______ _____ _____    ______ ____
ROOT
ATOM      1  C   UNL     1      45.989   7.213  12.475  0.00  0.00    +0.000 C 
ENDROOT
BRANCH   1   6
ATOM      2  C   UNL     1      44.709   4.245  10.418  0.00  0.00    +0.000 A 
ATOM      3  C   UNL     1      43.567   3.896  11.152  0.00  0.00    +0.000 A 
ATOM      4  C   UNL     1      43.169   4.617  12.276  0.00  0.00    +0.000 A 
ATOM      5  C   UNL     1      43.922   5.702  12.711  0.00  0.00    +0.000 A 
ATOM      6  C   UNL     1      45.086   6.076  12.033  0.00  0.00    +0.000 A 
ATOM      7  C   UNL     1      45.446   5.346  10.885  0.00  0.00    +0.000 A 
BRANCH   2  12
ATOM      8  C   UNL     1      47.525   1.472   6.514  0.00  0.00    +0.000 C 
ATOM      9  N   UNL     1      46.369   2.127   7.114  0.00  0.00    +0.000 NA
ATOM     10  C   UNL     1      45.998   1.472   8.390  0.00  0.00    +0.000 C 
ATOM     11  C   UNL     1      44.784   2.152   9.061  0.00  0.00    +0.000 C 
ATOM     12  N   UNL     1      45.071   3.581   9.264  0.00  0.00    +0.000 N 
ATOM     13  C   UNL     1      45.467   4.293   8.039  0.00  0.00    +0.000 C 
ATOM     14  C   UNL     1      46.655   3.556   7.377  0.00  0.00    +0.000 C 
ENDBRANCH   2  12
ENDBRANCH   1   6
BRANCH   1  15
ATOM     15  C   UNL     1      47.482   6.886  12.423  0.00  0.00    +0.000 C 
BRANCH  15  16
ATOM     16  N   UNL     1      48.184   7.257  13.653  0.00  0.00    +0.000 N 
ATOM     17  C   UNL     1      48.092   6.233  14.621  0.00  0.00    +0.000 A 
ATOM     18  C   UNL     1      48.700   6.412  15.858  0.00  0.00    +0.000 A 
ATOM     19  C   UNL     1      48.606   5.401  16.820  0.00  0.00    +0.000 A 
ATOM     20  C   UNL     1      47.906   4.228  16.532  0.00  0.00    +0.000 A 
ATOM     21  C   UNL     1      47.346   4.129  15.273  0.00  0.00    +0.000 A 
ATOM     22  N   UNL     1      47.432   5.093  14.327  0.00  0.00    +0.000 NA
ATOM     23  H   UNL     1      47.823   8.116  14.061  0.00  0.00    +0.000 HD
BRANCH  20  24
ATOM     24  C   UNL     1      47.785   3.169  17.558  0.00  0.00    +0.000 C 
ATOM     25  N   UNL     1      48.891   2.821  18.294  0.00  0.00    +0.000 N 
ATOM     26  O   UNL     1      46.720   2.598  17.757  0.00  0.00    +0.000 OA
ATOM     27  H   UNL     1      49.813   3.221  18.215  0.00  0.00    +0.000 HD
ATOM     28  H   UNL     1      48.762   2.090  18.977  0.00  0.00    +0.000 HD
ENDBRANCH  20  24
ENDBRANCH  15  16
ENDBRANCH   1  15
TORSDOF 5
ENDMDL
MODEL 4
REMARK VINA RESULT:    -7.390      3.560      5.938
REMARK INTER + INTRA:         -10.280
REMARK INTER:                  -9.697
REMARK INTRA:                  -0.583
REMARK UNBOUND:                -0.730
REMARK  Name = 
REMARK  6 active torsions:
REMARK  status: ('A' for Active; 'I' for Inactive)
REMARK    1  A    between atoms: C_1  and  N_2
REMARK    2  A    between atoms: N_5  and  C_6
REMARK    3  A    between atoms: C_10  and  C_11
REMARK    4  A    between atoms: C_11  and  C_12
REMARK    5  A    between atoms: C_12  and  N_13
REMARK    6  A    between atoms: C_17  and  C_18
REMARK                            x       y       z     vdW  Elec       q    Type
REMARK                         _______ _______ _______ _____ _____    ______ ____
ROOT
ATOM      1  C   UNL     1      43.932   5.437  12.077  0.00  0.00    +0.000 C 
ENDROOT
BRANCH   1   6
ATOM      2  C   UNL     1      44.816   9.121  11.505  0.00  0.00    +0.000 A 
ATOM      3  C   UNL     1      46.024   9.208  12.212  0.00  0.00    +0.000 A 
ATOM      4  C   UNL     1      46.589   8.099  12.839  0.00  0.00    +0.000 A 
ATOM      5  C   UNL     1      45.944   6.868  12.793  0.00  0.00    +0.000 A 
ATOM      6  C   UNL     1      44.722   6.732  12.127  0.00  0.00    +0.000 A 
ATOM      7  C   UNL     1      44.191   7.862  11.479  0.00  0.00    +0.000 A 
BRANCH   2  12
ATOM      8  C   UNL     1      42.983  12.543   7.532  0.00  0.00    +0.000 C 
ATOM      9  N   UNL     1      43.272  12.114   8.896  0.00  0.00    +0.000 NA
ATOM     10  C   UNL     1      42.540  10.867   9.219  0.00  0.00    +0.000 C 
ATOM     11  C   UNL     1      42.835  10.375  10.654  0.00  0.00    +0.000 C 
ATOM     12  N   UNL     1      44.286  10.195  10.823  0.00  0.00    +0.000 N 
ATOM     13  C   UNL     1      45.080  11.390  10.498  0.00  0.00    +0.000 C 
ATOM     14  C   UNL     1      44.722  11.874   9.073  0.00  0.00    +0.000 C 
ENDBRANCH   2  12
ENDBRANCH   1   6
BRANCH   1  15
ATOM     15  C   UNL     1      43.588   4.965  10.664  0.00  0.00    +0.000 C 
BRANCH  15  16
ATOM     16  N   UNL     1      43.769   3.522  10.490  0.00  0.00    +0.000 N 
ATOM     17  C   UNL     1      44.713   3.245   9.478  0.00  0.00    +0.000 A 
ATOM     18  C   UNL     1      45.011   1.921   9.173  0.00  0.00    +0.000 A 
ATOM     19  C   UNL     1      45.943   1.644   8.168  0.00  0.00    +0.000 A 
ATOM     20  C   UNL     1      46.562   2.691   7.483  0.00  0.00    +0.000 A 
ATOM     21  C   UNL     1      46.217   3.974   7.862  0.00  0.00    +0.000 A 
ATOM     22  N   UNL     1      45.324   4.263   8.837  0.00  0.00    +0.000 NA
ATOM     23  H   UNL     1      42.899   3.049  10.255  0.00  0.00    +0.000 HD
BRANCH  20  24
ATOM     24  C   UNL     1      47.530   2.398   6.403  0.00  0.00    +0.000 C 
ATOM     25  N   UNL     1      47.420   3.064   5.207  0.00  0.00    +0.000 N 
ATOM     26  O   UNL     1      48.421   1.572   6.558  0.00  0.00    +0.000 OA
ATOM     27  H   UNL     1      46.729   3.759   4.969  0.00  0.00    +0.000 HD
ATOM     28  H   UNL     1      48.099   2.826   4.499  0.00  0.00    +0.000 HD
ENDBRANCH  20  24
ENDBRANCH  15  16
ENDBRANCH   1  15
TORSDOF 5
ENDMDL
MODEL 5
REMARK VINA RESULT:    -7.198      1.774      2.408
REMARK INTER + INTRA:         -10.033
REMARK INTER:                  -9.468
REMARK INTRA:                  -0.564
REMARK UNBOUND:                -0.730
REMARK  Name = 
REMARK  6 active torsions:
REMARK  status: ('A' for Active; 'I' for Inactive)
REMARK    1  A    between atoms: C_1  and  N_2
REMARK    2  A    between atoms: N_5  and  C_6
REMARK    3  A    between atoms: C_10  and  C_11
REMARK    4  A    between atoms: C_11  and  C_12
REMARK    5  A    between atoms: C_12  and  N_13
REMARK    6  A    between atoms: C_17  and  C_18
REMARK                            x       y       z     vdW  Elec       q    Type
REMARK                         _______ _______ _______ _____ _____    ______ ____
ROOT
ATOM      1  C   UNL     1      42.896   5.973  11.537  0.00  0.00    +0.000 C 
ENDROOT
BRANCH   1   6
ATOM      2  C   UNL     1      46.171   7.550  12.751  0.00  0.00    +0.000 A 
ATOM      3  C   UNL     1      46.021   8.858  12.268  0.00  0.00    +0.000 A 
ATOM      4  C   UNL     1      44.872   9.263  11.592  0.00  0.00    +0.000 A 
ATOM      5  C   UNL     1      43.842   8.357  11.361  0.00  0.00    +0.000 A 
ATOM      6  C   UNL     1      43.952   7.033  11.796  0.00  0.00    +0.000 A 
ATOM      7  C   UNL     1      45.112   6.661  12.500  0.00  0.00    +0.000 A 
BRANCH   2  12
ATOM      8  C   UNL     1      49.658   6.277  16.883  0.00  0.00    +0.000 C 
ATOM      9  N   UNL     1      49.233   6.440  15.497  0.00  0.00    +0.000 NA
ATOM     10  C   UNL     1      48.060   5.583  15.204  0.00  0.00    +0.000 C 
ATOM     11  C   UNL     1      47.573   5.743  13.747  0.00  0.00    +0.000 C 
ATOM     12  N   UNL     1      47.273   7.159  13.482  0.00  0.00    +0.000 N 
ATOM     13  C   UNL     1      48.389   8.073  13.771  0.00  0.00    +0.000 C 
ATOM     14  C   UNL     1      48.873   7.850  15.222  0.00  0.00    +0.000 C 
ENDBRANCH   2  12
ENDBRANCH   1   6
BRANCH   1  15
ATOM     15  C   UNL     1      43.377   4.807  10.672  0.00  0.00    +0.000 C 
BRANCH  15  16
ATOM     16  N   UNL     1      44.272   5.236   9.593  0.00  0.00    +0.000 N 
ATOM     17  C   UNL     1      44.949   4.135   9.026  0.00  0.00    +0.000 A 
ATOM     18  C   UNL     1      45.846   4.354   7.986  0.00  0.00    +0.000 A 
ATOM     19  C   UNL     1      46.522   3.266   7.425  0.00  0.00    +0.000 A 
ATOM     20  C   UNL     1      46.294   1.978   7.912  0.00  0.00    +0.000 A 
ATOM     21  C   UNL     1      45.376   1.852   8.937  0.00  0.00    +0.000 A 
ATOM     22  N   UNL     1      44.706   2.891   9.487  0.00  0.00    +0.000 NA
ATOM     23  H   UNL     1      44.964   5.910   9.910  0.00  0.00    +0.000 HD
BRANCH  20  24
ATOM     24  C   UNL     1      47.028   0.829   7.336  0.00  0.00    +0.000 C 
ATOM     25  N   UNL     1      46.638  -0.446   7.662  0.00  0.00    +0.000 N 
ATOM     26  O   UNL     1      47.976   0.999   6.578  0.00  0.00    +0.000 OA
ATOM     27  H   UNL     1      45.878  -0.702   8.273  0.00  0.00    +0.000 HD
ATOM     28  H   UNL     1      47.172  -1.197   7.249  0.00  0.00    +0.000 HD
ENDBRANCH  20  24
ENDBRANCH  15  16
ENDBRANCH   1  15
TORSDOF 5
ENDMDL
MODEL 6
REMARK VINA RESULT:    -6.657      3.631      7.720
REMARK INTER + INTRA:          -9.333
REMARK INTER:                  -8.407
REMARK INTRA:                  -0.927
REMARK UNBOUND:                -0.730
REMARK  Name = 
REMARK  6 active torsions:
REMARK  status: ('A' for Active; 'I' for Inactive)
REMARK    1  A    between atoms: C_1  and  N_2
REMARK    2  A    between atoms: N_5  and  C_6
REMARK    3  A    between atoms: C_10  and  C_11
REMARK    4  A    between atoms: C_11  and  C_12
REMARK    5  A    between atoms: C_12  and  N_13
REMARK    6  A    between atoms: C_17  and  C_18
REMARK                            x       y       z     vdW  Elec       q    Type
REMARK                         _______ _______ _______ _____ _____    ______ ____
ROOT
ATOM      1  C   UNL     1      49.066   8.933  12.257  0.00  0.00    +0.000 C 
ENDROOT
BRANCH   1   6
ATOM      2  C   UNL     1      45.387   7.875  12.094  0.00  0.00    +0.000 A 
ATOM      3  C   UNL     1      44.770   9.119  11.898  0.00  0.00    +0.000 A 
ATOM      4  C   UNL     1      45.510  10.294  11.775  0.00  0.00    +0.000 A 
ATOM      5  C   UNL     1      46.896  10.257  11.868  0.00  0.00    +0.000 A 
ATOM      6  C   UNL     1      47.561   9.047  12.092  0.00  0.00    +0.000 A 
ATOM      7  C   UNL     1      46.789   7.875  12.183  0.00  0.00    +0.000 A 
BRANCH   2  12
ATOM      8  C   UNL     1      43.517   2.719  11.217  0.00  0.00    +0.000 C 
ATOM      9  N   UNL     1      43.553   4.038  11.836  0.00  0.00    +0.000 NA
ATOM     10  C   UNL     1      44.854   4.269  12.506  0.00  0.00    +0.000 C 
ATOM     11  C   UNL     1      44.931   5.666  13.161  0.00  0.00    +0.000 C 
ATOM     12  N   UNL     1      44.668   6.699  12.146  0.00  0.00    +0.000 N 
ATOM     13  C   UNL     1      43.398   6.521  11.424  0.00  0.00    +0.000 C 
ATOM     14  C   UNL     1      43.344   5.098  10.823  0.00  0.00    +0.000 C 
ENDBRANCH   2  12
ENDBRANCH   1   6
BRANCH   1  15
ATOM     15  C   UNL     1      49.536   7.586  12.809  0.00  0.00    +0.000 C 
BRANCH  15  16
ATOM     16  N   UNL     1      50.057   7.686  14.174  0.00  0.00    +0.000 N 
ATOM     17  C   UNL     1      49.404   6.778  15.036  0.00  0.00    +0.000 A 
ATOM     18  C   UNL     1      49.769   6.734  16.377  0.00  0.00    +0.000 A 
ATOM     19  C   UNL     1      49.121   5.838  17.233  0.00  0.00    +0.000 A 
ATOM     20  C   UNL     1      48.119   5.002  16.738  0.00  0.00    +0.000 A 
ATOM     21  C   UNL     1      47.832   5.102  15.391  0.00  0.00    +0.000 A 
ATOM     22  N   UNL     1      48.453   5.956  14.545  0.00  0.00    +0.000 NA
ATOM     23  H   UNL     1      49.955   8.622  14.559  0.00  0.00    +0.000 HD
BRANCH  20  24
ATOM     24  C   UNL     1      47.417   4.071  17.650  0.00  0.00    +0.000 C 
ATOM     25  N   UNL     1      47.713   4.095  18.990  0.00  0.00    +0.000 N 
ATOM     26  O   UNL     1      46.582   3.281  17.228  0.00  0.00    +0.000 OA
ATOM     27  H   UNL     1      48.381   4.699  19.445  0.00  0.00    +0.000 HD
ATOM     28  H   UNL     1      47.213   3.439  19.571  0.00  0.00    +0.000 HD
ENDBRANCH  20  24
ENDBRANCH  15  16
ENDBRANCH   1  15
TORSDOF 5
ENDMDL
MODEL 7
REMARK VINA RESULT:    -6.645      2.415      3.030
REMARK INTER + INTRA:          -9.318
REMARK INTER:                  -8.755
REMARK INTRA:                  -0.563
REMARK UNBOUND:                -0.730
REMARK  Name = 
REMARK  6 active torsions:
REMARK  status: ('A' for Active; 'I' for Inactive)
REMARK    1  A    between atoms: C_1  and  N_2
REMARK    2  A    between atoms: N_5  and  C_6
REMARK    3  A    between atoms: C_10  and  C_11
REMARK    4  A    between atoms: C_11  and  C_12
REMARK    5  A    between atoms: C_12  and  N_13
REMARK    6  A    between atoms: C_17  and  C_18
REMARK                            x       y       z     vdW  Elec       q    Type
REMARK                         _______ _______ _______ _____ _____    ______ ____
ROOT
ATOM      1  C   UNL     1      44.263   6.055  12.344  0.00  0.00    +0.000 C 
ENDROOT
BRANCH   1   6
ATOM      2  C   UNL     1      47.485   8.102  12.674  0.00  0.00    +0.000 A 
ATOM      3  C   UNL     1      47.053   9.343  12.186  0.00  0.00    +0.000 A 
ATOM      4  C   UNL     1      45.735   9.555  11.787  0.00  0.00    +0.000 A 
ATOM      5  C   UNL     1      44.812   8.517  11.847  0.00  0.00    +0.000 A 
ATOM      6  C   UNL     1      45.197   7.251  12.299  0.00  0.00    +0.000 A 
ATOM      7  C   UNL     1      46.527   7.075  12.722  0.00  0.00    +0.000 A 
BRANCH   2  12
ATOM      8  C   UNL     1      52.433   8.717  15.123  0.00  0.00    +0.000 C 
ATOM      9  N   UNL     1      51.400   8.032  14.356  0.00  0.00    +0.000 NA
ATOM     10  C   UNL     1      50.169   7.865  15.164  0.00  0.00    +0.000 C 
ATOM     11  C   UNL     1      49.046   7.156  14.375  0.00  0.00    +0.000 C 
ATOM     12  N   UNL     1      48.769   7.902  13.137  0.00  0.00    +0.000 N 
ATOM     13  C   UNL     1      49.953   8.123  12.293  0.00  0.00    +0.000 C 
ATOM     14  C   UNL     1      51.065   8.794  13.131  0.00  0.00    +0.000 C 
ENDBRANCH   2  12
ENDBRANCH   1   6
BRANCH   1  15
ATOM     15  C   UNL     1      43.742   5.614  10.976  0.00  0.00    +0.000 C 
BRANCH  15  16
ATOM     16  N   UNL     1      43.730   4.158  10.818  0.00  0.00    +0.000 N 
ATOM     17  C   UNL     1      44.570   3.754   9.758  0.00  0.00    +0.000 A 
ATOM     18  C   UNL     1      44.682   2.400   9.459  0.00  0.00    +0.000 A 
ATOM     19  C   UNL     1      45.510   1.998   8.407  0.00  0.00    +0.000 A 
ATOM     20  C   UNL     1      46.211   2.952   7.668  0.00  0.00    +0.000 A 
ATOM     21  C   UNL     1      46.053   4.272   8.043  0.00  0.00    +0.000 A 
ATOM     22  N   UNL     1      45.263   4.681   9.063  0.00  0.00    +0.000 NA
ATOM     23  H   UNL     1      42.796   3.795  10.643  0.00  0.00    +0.000 HD
BRANCH  20  24
ATOM     24  C   UNL     1      47.068   2.528   6.538  0.00  0.00    +0.000 C 
ATOM     25  N   UNL     1      48.100   1.653   6.772  0.00  0.00    +0.000 N 
ATOM     26  O   UNL     1      46.874   2.947   5.404  0.00  0.00    +0.000 OA
ATOM     27  H   UNL     1      48.351   1.247   7.660  0.00  0.00    +0.000 HD
ATOM     28  H   UNL     1      48.660   1.398   5.973  0.00  0.00    +0.000 HD
ENDBRANCH  20  24
ENDBRANCH  15  16
ENDBRANCH   1  15
TORSDOF 5
ENDMDL
MODEL 8
REMARK VINA RESULT:    -6.316      3.026      7.937
REMARK INTER + INTRA:          -8.892
REMARK INTER:                  -8.532
REMARK INTRA:                  -0.360
REMARK UNBOUND:                -0.730
REMARK  Name = 
REMARK  6 active torsions:
REMARK  status: ('A' for Active; 'I' for Inactive)
REMARK    1  A    between atoms: C_1  and  N_2
REMARK    2  A    between atoms: N_5  and  C_6
REMARK    3  A    between atoms: C_10  and  C_11
REMARK    4  A    between atoms: C_11  and  C_12
REMARK    5  A    between atoms: C_12  and  N_13
REMARK    6  A    between atoms: C_17  and  C_18
REMARK                            x       y       z     vdW  Elec       q    Type
REMARK                         _______ _______ _______ _____ _____    ______ ____
ROOT
ATOM      1  C   UNL     1      45.849   5.763  13.290  0.00  0.00    +0.000 C 
ENDROOT
BRANCH   1   6
ATOM      2  C   UNL     1      44.801   3.358  10.497  0.00  0.00    +0.000 A 
ATOM      3  C   UNL     1      43.679   2.755  11.083  0.00  0.00    +0.000 A 
ATOM      4  C   UNL     1      43.221   3.130  12.345  0.00  0.00    +0.000 A 
ATOM      5  C   UNL     1      43.891   4.110  13.068  0.00  0.00    +0.000 A 
ATOM      6  C   UNL     1      45.033   4.724  12.542  0.00  0.00    +0.000 A 
ATOM      7  C   UNL     1      45.454   4.345  11.254  0.00  0.00    +0.000 A 
BRANCH   2  12
ATOM      8  C   UNL     1      47.883   2.215   6.019  0.00  0.00    +0.000 C 
ATOM      9  N   UNL     1      46.654   2.417   6.777  0.00  0.00    +0.000 NA
ATOM     10  C   UNL     1      46.568   1.458   7.903  0.00  0.00    +0.000 C 
ATOM     11  C   UNL     1      45.283   1.655   8.738  0.00  0.00    +0.000 C 
ATOM     12  N   UNL     1      45.219   3.044   9.220  0.00  0.00    +0.000 N 
ATOM     13  C   UNL     1      45.320   4.054   8.155  0.00  0.00    +0.000 C 
ATOM     14  C   UNL     1      46.594   3.794   7.319  0.00  0.00    +0.000 C 
ENDBRANCH   2  12
ENDBRANCH   1   6
BRANCH   1  15
ATOM     15  C   UNL     1      47.078   5.199  14.005  0.00  0.00    +0.000 C 
BRANCH  15  16
ATOM     16  N   UNL     1      47.756   6.198  14.834  0.00  0.00    +0.000 N 
ATOM     17  C   UNL     1      48.723   6.907  14.089  0.00  0.00    +0.000 A 
ATOM     18  C   UNL     1      49.471   7.897  14.717  0.00  0.00    +0.000 A 
ATOM     19  C   UNL     1      50.432   8.598  13.983  0.00  0.00    +0.000 A 
ATOM     20  C   UNL     1      50.635   8.297  12.635  0.00  0.00    +0.000 A 
ATOM     21  C   UNL     1      49.838   7.309  12.089  0.00  0.00    +0.000 A 
ATOM     22  N   UNL     1      48.897   6.626  12.781  0.00  0.00    +0.000 NA
ATOM     23  H   UNL     1      48.214   5.783  15.642  0.00  0.00    +0.000 HD
BRANCH  20  24
ATOM     24  C   UNL     1      51.670   9.021  11.864  0.00  0.00    +0.000 C 
ATOM     25  N   UNL     1      52.937   9.129  12.381  0.00  0.00    +0.000 N 
ATOM     26  O   UNL     1      51.413   9.526  10.778  0.00  0.00    +0.000 OA
ATOM     27  H   UNL     1      53.258   8.755  13.261  0.00  0.00    +0.000 HD
ATOM     28  H   UNL     1      53.607   9.636  11.823  0.00  0.00    +0.000 HD
ENDBRANCH  20  24
ENDBRANCH  15  16
ENDBRANCH   1  15
TORSDOF 5
ENDMDL
MODEL 9
REMARK VINA RESULT:    -6.304      3.776      7.904
REMARK INTER + INTRA:          -8.877
REMARK INTER:                  -7.994
REMARK INTRA:                  -0.883
REMARK UNBOUND:                -0.730
REMARK  Name = 
REMARK  6 active torsions:
REMARK  status: ('A' for Active; 'I' for Inactive)
REMARK    1  A    between atoms: C_1  and  N_2
REMARK    2  A    between atoms: N_5  and  C_6
REMARK    3  A    between atoms: C_10  and  C_11
REMARK    4  A    between atoms: C_11  and  C_12
REMARK    5  A    between atoms: C_12  and  N_13
REMARK    6  A    between atoms: C_17  and  C_18
REMARK                            x       y       z     vdW  Elec       q    Type
REMARK                         _______ _______ _______ _____ _____    ______ ____
ROOT
ATOM      1  C   UNL     1      48.409   9.263  16.304  0.00  0.00    +0.000 C 
ENDROOT
BRANCH   1   6
ATOM      2  C   UNL     1      47.816   7.104  13.195  0.00  0.00    +0.000 A 
ATOM      3  C   UNL     1      49.075   7.182  12.583  0.00  0.00    +0.000 A 
ATOM      4  C   UNL     1      50.131   7.881  13.165  0.00  0.00    +0.000 A 
ATOM      5  C   UNL     1      49.947   8.543  14.373  0.00  0.00    +0.000 A 
ATOM      6  C   UNL     1      48.703   8.522  15.012  0.00  0.00    +0.000 A 
ATOM      7  C   UNL     1      47.665   7.784  14.415  0.00  0.00    +0.000 A 
BRANCH   2  12
ATOM      8  C   UNL     1      42.811   5.197  11.721  0.00  0.00    +0.000 C 
ATOM      9  N   UNL     1      44.267   5.210  11.789  0.00  0.00    +0.000 NA
ATOM     10  C   UNL     1      44.810   6.454  11.195  0.00  0.00    +0.000 C 
ATOM     11  C   UNL     1      46.352   6.507  11.265  0.00  0.00    +0.000 C 
ATOM     12  N   UNL     1      46.786   6.356  12.663  0.00  0.00    +0.000 N 
ATOM     13  C   UNL     1      46.267   5.149  13.324  0.00  0.00    +0.000 C 
ATOM     14  C   UNL     1      44.727   5.113  13.194  0.00  0.00    +0.000 C 
ENDBRANCH   2  12
ENDBRANCH   1   6
BRANCH   1  15
ATOM     15  C   UNL     1      48.839   8.515  17.568  0.00  0.00    +0.000 C 
BRANCH  15  16
ATOM     16  N   UNL     1      47.885   7.474  17.960  0.00  0.00    +0.000 N 
ATOM     17  C   UNL     1      48.425   6.186  17.755  0.00  0.00    +0.000 A 
ATOM     18  C   UNL     1      47.657   5.071  18.071  0.00  0.00    +0.000 A 
ATOM     19  C   UNL     1      48.188   3.794  17.865  0.00  0.00    +0.000 A 
ATOM     20  C   UNL     1      49.476   3.650  17.347  0.00  0.00    +0.000 A 
ATOM     21  C   UNL     1      50.173   4.811  17.076  0.00  0.00    +0.000 A 
ATOM     22  N   UNL     1      49.680   6.055  17.275  0.00  0.00    +0.000 NA
ATOM     23  H   UNL     1      47.009   7.540  17.447  0.00  0.00    +0.000 HD
BRANCH  20  24
ATOM     24  C   UNL     1      50.028   2.298  17.106  0.00  0.00    +0.000 C 
ATOM     25  N   UNL     1      50.978   1.801  17.964  0.00  0.00    +0.000 N 
ATOM     26  O   UNL     1      49.655   1.621  16.156  0.00  0.00    +0.000 OA
ATOM     27  H   UNL     1      51.358   2.268  18.773  0.00  0.00    +0.000 HD
ATOM     28  H   UNL     1      51.329   0.878  17.756  0.00  0.00    +0.000 HD
ENDBRANCH  20  24
ENDBRANCH  15  16
ENDBRANCH   1  15
TORSDOF 5
ENDMDL
