MODEL 1
REMARK VINA RESULT:    -7.021      0.000      0.000
REMARK INTER + INTRA:         -10.928
REMARK INTER:                  -9.895
REMARK INTRA:                  -1.034
REMARK UNBOUND:                -1.034
REMARK  Name = 
REMARK  8 active torsions:
REMARK  status: ('A' for Active; 'I' for Inactive)
REMARK    1  A    between atoms: N_1  and  C_2
REMARK    2  A    between atoms: C_2  and  C_3
REMARK    3  A    between atoms: C_7  and  C_8
REMARK    4  A    between atoms: C_8  and  C_9
REMARK    5  A    between atoms: C_9  and  C_10
REMARK    6  A    between atoms: C_10  and  C_11
REMARK    7  A    between atoms: C_15  and  C_16
REMARK    8  A    between atoms: C_16  and  N_17
REMARK                            x       y       z     vdW  Elec       q    Type
REMARK                         _______ _______ _______ _____ _____    ______ ____
ROOT
ATOM      1  C   UNL     1      43.502   3.758  11.174  0.00  0.00    +0.000 C 
ENDROOT
BRANCH   1   2
ATOM      2  C   UNL     1      44.119   3.888  12.570  0.00  0.00    +0.000 C 
BRANCH   2   7
ATOM      3  C   UNL     1      45.499   7.428  12.197  0.00  0.00    +0.000 A 
ATOM      4  C   UNL     1      46.728   7.302  12.860  0.00  0.00    +0.000 A 
ATOM      5  C   UNL     1      47.135   6.071  13.375  0.00  0.00    +0.000 A 
ATOM      6  C   UNL     1      46.308   4.953  13.254  0.00  0.00    +0.000 A 
ATOM      7  C   UNL     1      45.070   5.057  12.606  0.00  0.00    +0.000 A 
ATOM      8  C   UNL     1      44.682   6.295  12.072  0.00  0.00    +0.000 A 
BRANCH   3   9
ATOM      9  C   UNL     1      45.028   8.765  11.691  0.00  0.00    +0.000 C 
BRANCH   9  10
ATOM     10  N   UNL     1      44.648   9.661  12.779  0.00  0.00    +0.000 NA
ATOM     11  H   UNL     1      44.893   9.226  13.665  0.00  0.00    +0.000 HD
ATOM     12  H   UNL     1      43.637   9.765  12.775  0.00  0.00    +0.000 HD
ENDBRANCH   9  10
ENDBRANCH   3   9
ENDBRANCH   2   7
ENDBRANCH   1   2
BRANCH   1  13
ATOM     13  C   UNL     1      44.026   2.532  10.427  0.00  0.00    +0.000 C 
BRANCH  13  14
ATOM     14  C   UNL     1      44.981   2.923   9.326  0.00  0.00    +0.000 A 
ATOM     15  C   UNL     1      45.162   4.265   8.974  0.00  0.00    +0.000 A 
ATOM     16  C   UNL     1      46.044   4.613   7.950  0.00  0.00    +0.000 A 
ATOM     17  C   UNL     1      46.755   3.624   7.267  0.00  0.00    +0.000 A 
ATOM     18  C   UNL     1      46.585   2.274   7.599  0.00  0.00    +0.000 A 
ATOM     19  C   UNL     1      45.686   1.936   8.623  0.00  0.00    +0.000 A 
BRANCH  18  20
ATOM     20  C   UNL     1      47.342   1.196   6.865  0.00  0.00    +0.000 C 
BRANCH  20  21
ATOM     21  N   UNL     1      48.395   1.759   6.026  0.00  0.00    +0.000 NA
ATOM     22  H   UNL     1      47.983   2.057   5.144  0.00  0.00    +0.000 HD
ATOM     23  H   UNL     1      49.070   1.032   5.802  0.00  0.00    +0.000 HD
ENDBRANCH  20  21
ENDBRANCH  18  20
ENDBRANCH  13  14
ENDBRANCH   1  13
TORSDOF 8
ENDMDL
MODEL 2
REMARK VINA RESULT:    -6.981      0.560      6.415
REMARK INTER + INTRA:         -10.872
REMARK INTER:                  -9.827
REMARK INTRA:                  -1.045
REMARK UNBOUND:                -1.034
REMARK  Name = 
REMARK  8 active torsions:
REMARK  status: ('A' for Active; 'I' for Inactive)
REMARK    1  A    between atoms: N_1  and  C_2
REMARK    2  A    between atoms: C_2  and  C_3
REMARK    3  A    between atoms: C_7  and  C_8
REMARK    4  A    between atoms: C_8  and  C_9
REMARK    5  A    between atoms: C_9  and  C_10
REMARK    6  A    between atoms: C_10  and  C_11
REMARK    7  A    between atoms: C_15  and  C_16
REMARK    8  A    between atoms: C_16  and  N_17
REMARK                            x       y       z     vdW  Elec       q    Type
REMARK                         _______ _______ _______ _____ _____    ______ ____
ROOT
ATOM      1  C   UNL     1      43.572   3.600  11.205  0.00  0.00    +0.000 C 
ENDROOT
BRANCH   1   2
ATOM      2  C   UNL     1      43.973   2.418  10.317  0.00  0.00    +0.000 C 
BRANCH   2   7
ATOM      3  C   UNL     1      46.620   2.276   7.570  0.00  0.00    +0.000 A 
ATOM      4  C   UNL     1      46.776   3.639   7.284  0.00  0.00    +0.000 A 
ATOM      5  C   UNL     1      46.074   4.603   8.010  0.00  0.00    +0.000 A 
ATOM      6  C   UNL     1      45.190   4.214   9.017  0.00  0.00    +0.000 A 
ATOM      7  C   UNL     1      45.009   2.856   9.313  0.00  0.00    +0.000 A 
ATOM      8  C   UNL     1      45.737   1.898   8.591  0.00  0.00    +0.000 A 
BRANCH   3   9
ATOM      9  C   UNL     1      47.329   1.229   6.752  0.00  0.00    +0.000 C 
BRANCH   9  10
ATOM     10  N   UNL     1      48.444   1.789   5.992  0.00  0.00    +0.000 NA
ATOM     11  H   UNL     1      49.048   1.031   5.686  0.00  0.00    +0.000 HD
ATOM     12  H   UNL     1      48.999   2.371   6.613  0.00  0.00    +0.000 HD
ENDBRANCH   9  10
ENDBRANCH   3   9
ENDBRANCH   2   7
ENDBRANCH   1   2
BRANCH   1  13
ATOM     13  C   UNL     1      44.320   3.595  12.538  0.00  0.00    +0.000 C 
BRANCH  13  14
ATOM     14  C   UNL     1      45.192   4.818  12.686  0.00  0.00    +0.000 A 
ATOM     15  C   UNL     1      46.442   4.738  13.311  0.00  0.00    +0.000 A 
ATOM     16  C   UNL     1      47.237   5.876  13.447  0.00  0.00    +0.000 A 
ATOM     17  C   UNL     1      46.793   7.108  12.962  0.00  0.00    +0.000 A 
ATOM     18  C   UNL     1      45.542   7.213  12.339  0.00  0.00    +0.000 A 
ATOM     19  C   UNL     1      44.746   6.061  12.219  0.00  0.00    +0.000 A 
BRANCH  18  20
ATOM     20  C   UNL     1      45.046   8.538  11.817  0.00  0.00    +0.000 C 
BRANCH  20  21
ATOM     21  N   UNL     1      43.800   8.385  11.073  0.00  0.00    +0.000 NA
ATOM     22  H   UNL     1      43.092   8.982  11.498  0.00  0.00    +0.000 HD
ATOM     23  H   UNL     1      43.469   7.428  11.166  0.00  0.00    +0.000 HD
ENDBRANCH  20  21
ENDBRANCH  18  20
ENDBRANCH  13  14
ENDBRANCH   1  13
TORSDOF 8
ENDMDL
MODEL 3
REMARK VINA RESULT:    -6.932      1.920      6.477
REMARK INTER + INTRA:         -10.802
REMARK INTER:                 -10.022
REMARK INTRA:                  -0.781
REMARK UNBOUND:                -1.034
REMARK  Name = 
REMARK  8 active torsions:
REMARK  status: ('A' for Active; 'I' for Inactive)
REMARK    1  A    between atoms: N_1  and  C_2
REMARK    2  A    between atoms: C_2  and  C_3
REMARK    3  A    between atoms: C_7  and  C_8
REMARK    4  A    between atoms: C_8  and  C_9
REMARK    5  A    between atoms: C_9  and  C_10
REMARK    6  A    between atoms: C_10  and  C_11
REMARK    7  A    between atoms: C_15  and  C_16
REMARK    8  A    between atoms: C_16  and  N_17
REMARK                            x       y       z     vdW  Elec       q    Type
REMARK                         _______ _______ _______ _____ _____    ______ ____
ROOT
ATOM      1  C   UNL     1      43.683   3.877  10.486  0.00  0.00    +0.000 C 
ENDROOT
BRANCH   1   2
ATOM      2  C   UNL     1      44.179   4.352   9.117  0.00  0.00    +0.000 C 
BRANCH   2   7
ATOM      3  C   UNL     1      46.605   2.594   6.750  0.00  0.00    +0.000 A 
ATOM      4  C   UNL     1      46.684   1.328   7.347  0.00  0.00    +0.000 A 
ATOM      5  C   UNL     1      45.918   1.024   8.473  0.00  0.00    +0.000 A 
ATOM      6  C   UNL     1      45.079   1.990   9.030  0.00  0.00    +0.000 A 
ATOM      7  C   UNL     1      44.992   3.266   8.458  0.00  0.00    +0.000 A 
ATOM      8  C   UNL     1      45.751   3.552   7.313  0.00  0.00    +0.000 A 
BRANCH   3   9
ATOM      9  C   UNL     1      47.473   2.947   5.571  0.00  0.00    +0.000 C 
BRANCH   9  10
ATOM     10  N   UNL     1      48.451   1.904   5.278  0.00  0.00    +0.000 NA
ATOM     11  H   UNL     1      48.542   1.299   6.090  0.00  0.00    +0.000 HD
ATOM     12  H   UNL     1      49.358   2.340   5.136  0.00  0.00    +0.000 HD
ENDBRANCH   9  10
ENDBRANCH   3   9
ENDBRANCH   2   7
ENDBRANCH   1   2
BRANCH   1  13
ATOM     13  C   UNL     1      43.371   5.046  11.419  0.00  0.00    +0.000 C 
BRANCH  13  14
ATOM     14  C   UNL     1      44.626   5.607  12.041  0.00  0.00    +0.000 A 
ATOM     15  C   UNL     1      45.144   6.840  11.627  0.00  0.00    +0.000 A 
ATOM     16  C   UNL     1      46.309   7.346  12.206  0.00  0.00    +0.000 A 
ATOM     17  C   UNL     1      46.970   6.626  13.203  0.00  0.00    +0.000 A 
ATOM     18  C   UNL     1      46.473   5.387  13.628  0.00  0.00    +0.000 A 
ATOM     19  C   UNL     1      45.307   4.883  13.029  0.00  0.00    +0.000 A 
BRANCH  18  20
ATOM     20  C   UNL     1      47.181   4.595  14.698  0.00  0.00    +0.000 C 
BRANCH  20  21
ATOM     21  N   UNL     1      47.354   3.201  14.305  0.00  0.00    +0.000 NA
ATOM     22  H   UNL     1      48.237   3.110  13.807  0.00  0.00    +0.000 HD
ATOM     23  H   UNL     1      46.621   2.945  13.647  0.00  0.00    +0.000 HD
ENDBRANCH  20  21
ENDBRANCH  18  20
ENDBRANCH  13  14
ENDBRANCH   1  13
TORSDOF 8
ENDMDL
MODEL 4
REMARK VINA RESULT:    -6.669      1.584      6.311
REMARK INTER + INTRA:         -10.432
REMARK INTER:                  -9.367
REMARK INTRA:                  -1.064
REMARK UNBOUND:                -1.034
REMARK  Name = 
REMARK  8 active torsions:
REMARK  status: ('A' for Active; 'I' for Inactive)
REMARK    1  A    between atoms: N_1  and  C_2
REMARK    2  A    between atoms: C_2  and  C_3
REMARK    3  A    between atoms: C_7  and  C_8
REMARK    4  A    between atoms: C_8  and  C_9
REMARK    5  A    between atoms: C_9  and  C_10
REMARK    6  A    between atoms: C_10  and  C_11
REMARK    7  A    between atoms: C_15  and  C_16
REMARK    8  A    between atoms: C_16  and  N_17
REMARK                            x       y       z     vdW  Elec       q    Type
REMARK                         _______ _______ _______ _____ _____    ______ ____
ROOT
ATOM      1  C   UNL     1      44.528   3.074  11.888  0.00  0.00    +0.000 C 
ENDROOT
BRANCH   1   2
ATOM      2  C   UNL     1      43.927   2.758  10.515  0.00  0.00    +0.000 C 
BRANCH   2   7
ATOM      3  C   UNL     1      46.467   2.076   7.748  0.00  0.00    +0.000 A 
ATOM      4  C   UNL     1      46.704   3.376   7.281  0.00  0.00    +0.000 A 
ATOM      5  C   UNL     1      46.091   4.472   7.890  0.00  0.00    +0.000 A 
ATOM      6  C   UNL     1      45.217   4.280   8.961  0.00  0.00    +0.000 A 
ATOM      7  C   UNL     1      44.956   2.989   9.437  0.00  0.00    +0.000 A 
ATOM      8  C   UNL     1      45.594   1.896   8.831  0.00  0.00    +0.000 A 
BRANCH   3   9
ATOM      9  C   UNL     1      47.078   0.885   7.058  0.00  0.00    +0.000 C 
BRANCH   9  10
ATOM     10  N   UNL     1      46.788  -0.363   7.759  0.00  0.00    +0.000 NA
ATOM     11  H   UNL     1      47.467  -1.066   7.476  0.00  0.00    +0.000 HD
ATOM     12  H   UNL     1      45.878  -0.700   7.458  0.00  0.00    +0.000 HD
ENDBRANCH   9  10
ENDBRANCH   3   9
ENDBRANCH   2   7
ENDBRANCH   1   2
BRANCH   1  13
ATOM     13  C   UNL     1      43.865   4.286  12.539  0.00  0.00    +0.000 C 
BRANCH  13  14
ATOM     14  C   UNL     1      44.753   5.505  12.468  0.00  0.00    +0.000 A 
ATOM     15  C   UNL     1      44.373   6.628  11.726  0.00  0.00    +0.000 A 
ATOM     16  C   UNL     1      45.205   7.747  11.663  0.00  0.00    +0.000 A 
ATOM     17  C   UNL     1      46.425   7.756  12.341  0.00  0.00    +0.000 A 
ATOM     18  C   UNL     1      46.829   6.640  13.085  0.00  0.00    +0.000 A 
ATOM     19  C   UNL     1      45.988   5.515  13.130  0.00  0.00    +0.000 A 
BRANCH  18  20
ATOM     20  C   UNL     1      48.148   6.632  13.817  0.00  0.00    +0.000 C 
BRANCH  20  21
ATOM     21  N   UNL     1      49.269   6.495  12.893  0.00  0.00    +0.000 NA
ATOM     22  H   UNL     1      49.951   7.223  13.099  0.00  0.00    +0.000 HD
ATOM     23  H   UNL     1      48.944   6.660  11.944  0.00  0.00    +0.000 HD
ENDBRANCH  20  21
ENDBRANCH  18  20
ENDBRANCH  13  14
ENDBRANCH   1  13
TORSDOF 8
ENDMDL
MODEL 5
REMARK VINA RESULT:    -6.309      1.303      6.402
REMARK INTER + INTRA:          -9.925
REMARK INTER:                  -8.941
REMARK INTRA:                  -0.984
REMARK UNBOUND:                -1.034
REMARK  Name = 
REMARK  8 active torsions:
REMARK  status: ('A' for Active; 'I' for Inactive)
REMARK    1  A    between atoms: N_1  and  C_2
REMARK    2  A    between atoms: C_2  and  C_3
REMARK    3  A    between atoms: C_7  and  C_8
REMARK    4  A    between atoms: C_8  and  C_9
REMARK    5  A    between atoms: C_9  and  C_10
REMARK    6  A    between atoms: C_10  and  C_11
REMARK    7  A    between atoms: C_15  and  C_16
REMARK    8  A    between atoms: C_16  and  N_17
REMARK                            x       y       z     vdW  Elec       q    Type
REMARK                         _______ _______ _______ _____ _____    ______ ____
ROOT
ATOM      1  C   UNL     1      43.116   4.170  11.408  0.00  0.00    +0.000 C 
ENDROOT
BRANCH   1   2
ATOM      2  C   UNL     1      43.664   4.838  10.143  0.00  0.00    +0.000 C 
BRANCH   2   7
ATOM      3  C   UNL     1      46.205   3.390   7.689  0.00  0.00    +0.000 A 
ATOM      4  C   UNL     1      46.101   2.022   7.980  0.00  0.00    +0.000 A 
ATOM      5  C   UNL     1      45.179   1.564   8.922  0.00  0.00    +0.000 A 
ATOM      6  C   UNL     1      44.363   2.469   9.601  0.00  0.00    +0.000 A 
ATOM      7  C   UNL     1      44.456   3.841   9.335  0.00  0.00    +0.000 A 
ATOM      8  C   UNL     1      45.371   4.288   8.371  0.00  0.00    +0.000 A 
BRANCH   3   9
ATOM      9  C   UNL     1      47.237   3.897   6.718  0.00  0.00    +0.000 C 
BRANCH   9  10
ATOM     10  N   UNL     1      47.110   3.271   5.405  0.00  0.00    +0.000 NA
ATOM     11  H   UNL     1      46.550   3.871   4.806  0.00  0.00    +0.000 HD
ATOM     12  H   UNL     1      46.594   2.401   5.510  0.00  0.00    +0.000 HD
ENDBRANCH   9  10
ENDBRANCH   3   9
ENDBRANCH   2   7
ENDBRANCH   1   2
BRANCH   1  13
ATOM     13  C   UNL     1      43.296   5.049  12.644  0.00  0.00    +0.000 C 
BRANCH  13  14
ATOM     14  C   UNL     1      44.755   5.317  12.923  0.00  0.00    +0.000 A 
ATOM     15  C   UNL     1      45.628   4.274  13.251  0.00  0.00    +0.000 A 
ATOM     16  C   UNL     1      46.974   4.536  13.512  0.00  0.00    +0.000 A 
ATOM     17  C   UNL     1      47.462   5.843  13.448  0.00  0.00    +0.000 A 
ATOM     18  C   UNL     1      46.605   6.903  13.128  0.00  0.00    +0.000 A 
ATOM     19  C   UNL     1      45.250   6.628  12.879  0.00  0.00    +0.000 A 
BRANCH  18  20
ATOM     20  C   UNL     1      47.117   8.320  13.063  0.00  0.00    +0.000 C 
BRANCH  20  21
ATOM     21  N   UNL     1      46.982   8.996  14.349  0.00  0.00    +0.000 NA
ATOM     22  H   UNL     1      46.750   8.303  15.058  0.00  0.00    +0.000 HD
ATOM     23  H   UNL     1      46.198   9.643  14.306  0.00  0.00    +0.000 HD
ENDBRANCH  20  21
ENDBRANCH  18  20
ENDBRANCH  13  14
ENDBRANCH   1  13
TORSDOF 8
ENDMDL
MODEL 6
REMARK VINA RESULT:    -6.275      1.721      2.280
REMARK INTER + INTRA:          -9.877
REMARK INTER:                  -8.948
REMARK INTRA:                  -0.929
REMARK UNBOUND:                -1.034
REMARK  Name = 
REMARK  8 active torsions:
REMARK  status: ('A' for Active; 'I' for Inactive)
REMARK    1  A    between atoms: N_1  and  C_2
REMARK    2  A    between atoms: C_2  and  C_3
REMARK    3  A    between atoms: C_7  and  C_8
REMARK    4  A    between atoms: C_8  and  C_9
REMARK    5  A    between atoms: C_9  and  C_10
REMARK    6  A    between atoms: C_10  and  C_11
REMARK    7  A    between atoms: C_15  and  C_16
REMARK    8  A    between atoms: C_16  and  N_17
REMARK                            x       y       z     vdW  Elec       q    Type
REMARK                         _______ _______ _______ _____ _____    ______ ____
ROOT
ATOM      1  C   UNL     1      43.808   4.080  11.269  0.00  0.00    +0.000 C 
ENDROOT
BRANCH   1   2
ATOM      2  C   UNL     1      44.508   4.016  12.629  0.00  0.00    +0.000 C 
BRANCH   2   7
ATOM      3  C   UNL     1      47.547   5.983  13.843  0.00  0.00    +0.000 A 
ATOM      4  C   UNL     1      47.765   6.832  12.749  0.00  0.00    +0.000 A 
ATOM      5  C   UNL     1      46.905   6.810  11.650  0.00  0.00    +0.000 A 
ATOM      6  C   UNL     1      45.828   5.924  11.622  0.00  0.00    +0.000 A 
ATOM      7  C   UNL     1      45.597   5.057  12.698  0.00  0.00    +0.000 A 
ATOM      8  C   UNL     1      46.456   5.103  13.807  0.00  0.00    +0.000 A 
BRANCH   3   9
ATOM      9  C   UNL     1      48.505   5.959  15.005  0.00  0.00    +0.000 C 
BRANCH   9  10
ATOM     10  N   UNL     1      48.148   6.936  16.029  0.00  0.00    +0.000 NA
ATOM     11  H   UNL     1      48.998   7.363  16.389  0.00  0.00    +0.000 HD
ATOM     12  H   UNL     1      47.717   6.446  16.808  0.00  0.00    +0.000 HD
ENDBRANCH   9  10
ENDBRANCH   3   9
ENDBRANCH   2   7
ENDBRANCH   1   2
BRANCH   1  13
ATOM     13  C   UNL     1      43.972   2.783  10.478  0.00  0.00    +0.000 C 
BRANCH  13  14
ATOM     14  C   UNL     1      44.935   2.955   9.329  0.00  0.00    +0.000 A 
ATOM     15  C   UNL     1      45.137   4.209   8.742  0.00  0.00    +0.000 A 
ATOM     16  C   UNL     1      46.026   4.354   7.676  0.00  0.00    +0.000 A 
ATOM     17  C   UNL     1      46.722   3.247   7.184  0.00  0.00    +0.000 A 
ATOM     18  C   UNL     1      46.530   1.981   7.752  0.00  0.00    +0.000 A 
ATOM     19  C   UNL     1      45.624   1.847   8.817  0.00  0.00    +0.000 A 
BRANCH  18  20
ATOM     20  C   UNL     1      47.270   0.777   7.227  0.00  0.00    +0.000 C 
BRANCH  20  21
ATOM     21  N   UNL     1      46.717  -0.463   7.761  0.00  0.00    +0.000 NA
ATOM     22  H   UNL     1      47.024  -0.567   8.726  0.00  0.00    +0.000 HD
ATOM     23  H   UNL     1      47.102  -1.251   7.246  0.00  0.00    +0.000 HD
ENDBRANCH  20  21
ENDBRANCH  18  20
ENDBRANCH  13  14
ENDBRANCH   1  13
TORSDOF 8
ENDMDL
MODEL 7
REMARK VINA RESULT:    -6.027      2.729      4.168
REMARK INTER + INTRA:          -9.527
REMARK INTER:                  -8.806
REMARK INTRA:                  -0.721
REMARK UNBOUND:                -1.034
REMARK  Name = 
REMARK  8 active torsions:
REMARK  status: ('A' for Active; 'I' for Inactive)
REMARK    1  A    between atoms: N_1  and  C_2
REMARK    2  A    between atoms: C_2  and  C_3
REMARK    3  A    between atoms: C_7  and  C_8
REMARK    4  A    between atoms: C_8  and  C_9
REMARK    5  A    between atoms: C_9  and  C_10
REMARK    6  A    between atoms: C_10  and  C_11
REMARK    7  A    between atoms: C_15  and  C_16
REMARK    8  A    between atoms: C_16  and  N_17
REMARK                            x       y       z     vdW  Elec       q    Type
REMARK                         _______ _______ _______ _____ _____    ______ ____
ROOT
ATOM      1  C   UNL     1      45.478   6.287  12.590  0.00  0.00    +0.000 C 
ENDROOT
BRANCH   1   2
ATOM      2  C   UNL     1      46.968   5.935  12.568  0.00  0.00    +0.000 C 
BRANCH   2   7
ATOM      3  C   UNL     1      47.893   4.532  15.997  0.00  0.00    +0.000 A 
ATOM      4  C   UNL     1      48.664   5.584  16.512  0.00  0.00    +0.000 A 
ATOM      5  C   UNL     1      48.839   6.760  15.782  0.00  0.00    +0.000 A 
ATOM      6  C   UNL     1      48.263   6.893  14.518  0.00  0.00    +0.000 A 
ATOM      7  C   UNL     1      47.498   5.851  13.978  0.00  0.00    +0.000 A 
ATOM      8  C   UNL     1      47.311   4.681  14.730  0.00  0.00    +0.000 A 
BRANCH   3   9
ATOM      9  C   UNL     1      47.749   3.238  16.753  0.00  0.00    +0.000 C 
BRANCH   9  10
ATOM     10  N   UNL     1      46.535   3.209  17.563  0.00  0.00    +0.000 NA
ATOM     11  H   UNL     1      46.048   4.095  17.461  0.00  0.00    +0.000 HD
ATOM     12  H   UNL     1      46.801   3.134  18.542  0.00  0.00    +0.000 HD
ENDBRANCH   9  10
ENDBRANCH   3   9
ENDBRANCH   2   7
ENDBRANCH   1   2
BRANCH   1  13
ATOM     13  C   UNL     1      44.893   6.393  11.183  0.00  0.00    +0.000 C 
BRANCH  13  14
ATOM     14  C   UNL     1      44.778   5.037  10.529  0.00  0.00    +0.000 A 
ATOM     15  C   UNL     1      44.080   3.996  11.151  0.00  0.00    +0.000 A 
ATOM     16  C   UNL     1      43.985   2.745  10.540  0.00  0.00    +0.000 A 
ATOM     17  C   UNL     1      44.587   2.521   9.300  0.00  0.00    +0.000 A 
ATOM     18  C   UNL     1      45.296   3.546   8.662  0.00  0.00    +0.000 A 
ATOM     19  C   UNL     1      45.394   4.797   9.293  0.00  0.00    +0.000 A 
BRANCH  18  20
ATOM     20  C   UNL     1      45.957   3.316   7.326  0.00  0.00    +0.000 C 
BRANCH  20  21
ATOM     21  N   UNL     1      47.003   4.301   7.071  0.00  0.00    +0.000 NA
ATOM     22  H   UNL     1      47.508   4.028   6.230  0.00  0.00    +0.000 HD
ATOM     23  H   UNL     1      47.675   4.281   7.834  0.00  0.00    +0.000 HD
ENDBRANCH  20  21
ENDBRANCH  18  20
ENDBRANCH  13  14
ENDBRANCH   1  13
TORSDOF 8
ENDMDL
MODEL 8
REMARK VINA RESULT:    -5.808      1.833      2.619
REMARK INTER + INTRA:          -9.219
REMARK INTER:                  -8.348
REMARK INTRA:                  -0.871
REMARK UNBOUND:                -1.034
REMARK  Name = 
REMARK  8 active torsions:
REMARK  status: ('A' for Active; 'I' for Inactive)
REMARK    1  A    between atoms: N_1  and  C_2
REMARK    2  A    between atoms: C_2  and  C_3
REMARK    3  A    between atoms: C_7  and  C_8
REMARK    4  A    between atoms: C_8  and  C_9
REMARK    5  A    between atoms: C_9  and  C_10
REMARK    6  A    between atoms: C_10  and  C_11
REMARK    7  A    between atoms: C_15  and  C_16
REMARK    8  A    between atoms: C_16  and  N_17
REMARK                            x       y       z     vdW  Elec       q    Type
REMARK                         _______ _______ _______ _____ _____    ______ ____
ROOT
ATOM      1  C   UNL     1      44.193   4.709  11.610  0.00  0.00    +0.000 C 
ENDROOT
BRANCH   1   2
ATOM      2  C   UNL     1      45.697   4.800  11.884  0.00  0.00    +0.000 C 
BRANCH   2   7
ATOM      3  C   UNL     1      47.738   8.016  12.142  0.00  0.00    +0.000 A 
ATOM      4  C   UNL     1      46.755   8.918  12.572  0.00  0.00    +0.000 A 
ATOM      5  C   UNL     1      45.454   8.482  12.831  0.00  0.00    +0.000 A 
ATOM      6  C   UNL     1      45.115   7.141  12.643  0.00  0.00    +0.000 A 
ATOM      7  C   UNL     1      46.078   6.224  12.202  0.00  0.00    +0.000 A 
ATOM      8  C   UNL     1      47.387   6.670  11.966  0.00  0.00    +0.000 A 
BRANCH   3   9
ATOM      9  C   UNL     1      49.126   8.491  11.805  0.00  0.00    +0.000 C 
BRANCH   9  10
ATOM     10  N   UNL     1      50.092   7.396  11.790  0.00  0.00    +0.000 NA
ATOM     11  H   UNL     1      50.651   7.437  12.638  0.00  0.00    +0.000 HD
ATOM     12  H   UNL     1      50.732   7.539  11.013  0.00  0.00    +0.000 HD
ENDBRANCH   9  10
ENDBRANCH   3   9
ENDBRANCH   2   7
ENDBRANCH   1   2
BRANCH   1  13
ATOM     13  C   UNL     1      43.877   4.775  10.117  0.00  0.00    +0.000 C 
BRANCH  13  14
ATOM     14  C   UNL     1      44.661   3.745   9.341  0.00  0.00    +0.000 A 
ATOM     15  C   UNL     1      44.490   2.378   9.585  0.00  0.00    +0.000 A 
ATOM     16  C   UNL     1      45.225   1.435   8.865  0.00  0.00    +0.000 A 
ATOM     17  C   UNL     1      46.139   1.848   7.893  0.00  0.00    +0.000 A 
ATOM     18  C   UNL     1      46.332   3.211   7.637  0.00  0.00    +0.000 A 
ATOM     19  C   UNL     1      45.594   4.150   8.378  0.00  0.00    +0.000 A 
BRANCH  18  20
ATOM     20  C   UNL     1      47.321   3.672   6.597  0.00  0.00    +0.000 C 
BRANCH  20  21
ATOM     21  N   UNL     1      48.284   2.623   6.275  0.00  0.00    +0.000 NA
ATOM     22  H   UNL     1      48.507   2.681   5.283  0.00  0.00    +0.000 HD
ATOM     23  H   UNL     1      47.852   1.715   6.424  0.00  0.00    +0.000 HD
ENDBRANCH  20  21
ENDBRANCH  18  20
ENDBRANCH  13  14
ENDBRANCH   1  13
TORSDOF 8
ENDMDL
MODEL 9
REMARK VINA RESULT:    -5.638      1.299      7.072
REMARK INTER + INTRA:          -8.978
REMARK INTER:                  -8.314
REMARK INTRA:                  -0.664
REMARK UNBOUND:                -1.034
REMARK  Name = 
REMARK  8 active torsions:
REMARK  status: ('A' for Active; 'I' for Inactive)
REMARK    1  A    between atoms: N_1  and  C_2
REMARK    2  A    between atoms: C_2  and  C_3
REMARK    3  A    between atoms: C_7  and  C_8
REMARK    4  A    between atoms: C_8  and  C_9
REMARK    5  A    between atoms: C_9  and  C_10
REMARK    6  A    between atoms: C_10  and  C_11
REMARK    7  A    between atoms: C_15  and  C_16
REMARK    8  A    between atoms: C_16  and  N_17
REMARK                            x       y       z     vdW  Elec       q    Type
REMARK                         _______ _______ _______ _____ _____    ______ ____
ROOT
ATOM      1  C   UNL     1      45.666   5.146  11.750  0.00  0.00    +0.000 C 
ENDROOT
BRANCH   1   2
ATOM      2  C   UNL     1      44.853   5.301  10.461  0.00  0.00    +0.000 C 
BRANCH   2   7
ATOM      3  C   UNL     1      46.188   3.178   7.583  0.00  0.00    +0.000 A 
ATOM      4  C   UNL     1      45.749   1.905   7.969  0.00  0.00    +0.000 A 
ATOM      5  C   UNL     1      44.979   1.737   9.121  0.00  0.00    +0.000 A 
ATOM      6  C   UNL     1      44.657   2.840   9.914  0.00  0.00    +0.000 A 
ATOM      7  C   UNL     1      45.095   4.121   9.554  0.00  0.00    +0.000 A 
ATOM      8  C   UNL     1      45.850   4.279   8.382  0.00  0.00    +0.000 A 
BRANCH   3   9
ATOM      9  C   UNL     1      47.068   3.358   6.374  0.00  0.00    +0.000 C 
BRANCH   9  10
ATOM     10  N   UNL     1      48.340   2.655   6.512  0.00  0.00    +0.000 NA
ATOM     11  H   UNL     1      48.739   2.870   7.422  0.00  0.00    +0.000 HD
ATOM     12  H   UNL     1      48.988   3.017   5.817  0.00  0.00    +0.000 HD
ENDBRANCH   9  10
ENDBRANCH   3   9
ENDBRANCH   2   7
ENDBRANCH   1   2
BRANCH   1  13
ATOM     13  C   UNL     1      45.288   6.195  12.795  0.00  0.00    +0.000 C 
BRANCH  13  14
ATOM     14  C   UNL     1      45.894   7.539  12.473  0.00  0.00    +0.000 A 
ATOM     15  C   UNL     1      47.281   7.725  12.490  0.00  0.00    +0.000 A 
ATOM     16  C   UNL     1      47.829   8.974  12.195  0.00  0.00    +0.000 A 
ATOM     17  C   UNL     1      46.997  10.052  11.882  0.00  0.00    +0.000 A 
ATOM     18  C   UNL     1      45.606   9.890  11.867  0.00  0.00    +0.000 A 
ATOM     19  C   UNL     1      45.067   8.630  12.176  0.00  0.00    +0.000 A 
BRANCH  18  20
ATOM     20  C   UNL     1      44.696  11.046  11.538  0.00  0.00    +0.000 C 
BRANCH  20  21
ATOM     21  N   UNL     1      43.356  10.842  12.079  0.00  0.00    +0.000 NA
ATOM     22  H   UNL     1      42.767  11.621  11.792  0.00  0.00    +0.000 HD
ATOM     23  H   UNL     1      43.398  10.865  13.095  0.00  0.00    +0.000 HD
ENDBRANCH  20  21
ENDBRANCH  18  20
ENDBRANCH  13  14
ENDBRANCH   1  13
TORSDOF 8
ENDMDL
