MODEL 1
REMARK VINA RESULT:    -8.587      0.000      0.000
REMARK INTER + INTRA:         -13.276
REMARK INTER:                 -12.100
REMARK INTRA:                  -1.175
REMARK UNBOUND:                -1.175
REMARK  Name = 
REMARK  8 active torsions:
REMARK  status: ('A' for Active; 'I' for Inactive)
REMARK    1  A    between atoms: C_1  and  C_2
REMARK    2  A    between atoms: C_2  and  C_3
REMARK    3  A    between atoms: C_2  and  C_14
REMARK    4  A    between atoms: C_3  and  O_4
REMARK    5  A    between atoms: O_4  and  C_5
REMARK    6  A    between atoms: C_8  and  C_9
REMARK    7  A    between atoms: C_18  and  O_19
REMARK    8  A    between atoms: O_19  and  C_20
REMARK                            x       y       z     vdW  Elec       q    Type
REMARK                         _______ _______ _______ _____ _____    ______ ____
ROOT
ATOM      1  C   UNL     1      43.638   3.612  12.969  0.00  0.00    +0.000 C 
ATOM      2  C   UNL     1      43.887   4.979  12.319  0.00  0.00    +0.000 C 
ENDROOT
BRANCH   2   3
ATOM      3  C   UNL     1      45.321   5.427  12.540  0.00  0.00    +0.000 A 
ATOM      4  C   UNL     1      45.958   6.241  11.593  0.00  0.00    +0.000 A 
ATOM      5  C   UNL     1      47.270   6.673  11.797  0.00  0.00    +0.000 A 
ATOM      6  C   UNL     1      47.968   6.296  12.946  0.00  0.00    +0.000 A 
ATOM      7  C   UNL     1      47.351   5.479  13.889  0.00  0.00    +0.000 A 
ATOM      8  C   UNL     1      46.036   5.054  13.688  0.00  0.00    +0.000 A 
BRANCH   7   9
ATOM      9  O   UNL     1      47.917   5.068  15.068  0.00  0.00    +0.000 OA
BRANCH   9  10
ATOM     10  C   UNL     1      47.159   4.208  15.947  0.00  0.00    +0.000 C 
ATOM     11  C   UNL     1      47.125   4.555  17.449  0.00  0.00    +0.000 C 
ATOM     12  N   UNL     1      47.557   3.191  17.790  0.00  0.00    +0.000 NA
ATOM     13  C   UNL     1      47.902   2.929  16.385  0.00  0.00    +0.000 C 
ATOM     14  H   UNL     1      46.813   2.594  18.152  0.00  0.00    +0.000 HD
ENDBRANCH   9  10
ENDBRANCH   7   9
ENDBRANCH   2   3
BRANCH   2  15
ATOM     15  C   UNL     1      43.500   4.928  10.829  0.00  0.00    +0.000 C 
BRANCH  15  16
ATOM     16  O   UNL     1      43.566   3.579  10.347  0.00  0.00    +0.000 OA
BRANCH  16  17
ATOM     17  C   UNL     1      44.524   3.350   9.399  0.00  0.00    +0.000 A 
ATOM     18  C   UNL     1      45.117   4.340   8.612  0.00  0.00    +0.000 A 
ATOM     19  C   UNL     1      46.100   4.004   7.680  0.00  0.00    +0.000 A 
ATOM     20  C   UNL     1      46.514   2.675   7.532  0.00  0.00    +0.000 A 
ATOM     21  C   UNL     1      45.927   1.680   8.321  0.00  0.00    +0.000 A 
ATOM     22  C   UNL     1      44.941   2.023   9.256  0.00  0.00    +0.000 A 
BRANCH  20  23
ATOM     23  C   UNL     1      47.558   2.387   6.514  0.00  0.00    +0.000 C 
ATOM     24  N   UNL     1      47.467   3.030   5.313  0.00  0.00    +0.000 N 
ATOM     25  O   UNL     1      48.449   1.573   6.721  0.00  0.00    +0.000 OA
ATOM     26  H   UNL     1      46.632   3.512   5.014  0.00  0.00    +0.000 HD
ATOM     27  H   UNL     1      48.119   2.728   4.600  0.00  0.00    +0.000 HD
ENDBRANCH  20  23
ENDBRANCH  16  17
ENDBRANCH  15  16
ENDBRANCH   2  15
TORSDOF 7
ENDMDL
MODEL 2
REMARK VINA RESULT:    -7.293      3.278      4.460
REMARK INTER + INTRA:         -11.453
REMARK INTER:                 -10.656
REMARK INTRA:                  -0.797
REMARK UNBOUND:                -1.175
REMARK  Name = 
REMARK  8 active torsions:
REMARK  status: ('A' for Active; 'I' for Inactive)
REMARK    1  A    between atoms: C_1  and  C_2
REMARK    2  A    between atoms: C_2  and  C_3
REMARK    3  A    between atoms: C_2  and  C_14
REMARK    4  A    between atoms: C_3  and  O_4
REMARK    5  A    between atoms: O_4  and  C_5
REMARK    6  A    between atoms: C_8  and  C_9
REMARK    7  A    between atoms: C_18  and  O_19
REMARK    8  A    between atoms: O_19  and  C_20
REMARK                            x       y       z     vdW  Elec       q    Type
REMARK                         _______ _______ _______ _____ _____    ______ ____
ROOT
ATOM      1  C   UNL     1      45.189   3.428  12.562  0.00  0.00    +0.000 C 
ATOM      2  C   UNL     1      44.392   4.713  12.301  0.00  0.00    +0.000 C 
ENDROOT
BRANCH   2   3
ATOM      3  C   UNL     1      45.309   5.925  12.301  0.00  0.00    +0.000 A 
ATOM      4  C   UNL     1      46.696   5.757  12.176  0.00  0.00    +0.000 A 
ATOM      5  C   UNL     1      47.544   6.866  12.156  0.00  0.00    +0.000 A 
ATOM      6  C   UNL     1      47.024   8.157  12.265  0.00  0.00    +0.000 A 
ATOM      7  C   UNL     1      45.651   8.336  12.401  0.00  0.00    +0.000 A 
ATOM      8  C   UNL     1      44.801   7.228  12.413  0.00  0.00    +0.000 A 
BRANCH   7   9
ATOM      9  O   UNL     1      45.017   9.549  12.484  0.00  0.00    +0.000 OA
BRANCH   9  10
ATOM     10  C   UNL     1      45.108  10.465  11.371  0.00  0.00    +0.000 C 
ATOM     11  C   UNL     1      45.260  11.968  11.680  0.00  0.00    +0.000 C 
ATOM     12  N   UNL     1      44.114  12.279  10.812  0.00  0.00    +0.000 NA
ATOM     13  C   UNL     1      43.750  10.855  10.752  0.00  0.00    +0.000 C 
ATOM     14  H   UNL     1      44.369  12.679   9.910  0.00  0.00    +0.000 HD
ENDBRANCH   9  10
ENDBRANCH   7   9
ENDBRANCH   2   3
BRANCH   2  15
ATOM     15  C   UNL     1      43.587   4.573  10.995  0.00  0.00    +0.000 C 
BRANCH  15  16
ATOM     16  O   UNL     1      43.715   3.242  10.477  0.00  0.00    +0.000 OA
BRANCH  16  17
ATOM     17  C   UNL     1      44.626   3.099   9.467  0.00  0.00    +0.000 A 
ATOM     18  C   UNL     1      45.161   4.154   8.724  0.00  0.00    +0.000 A 
ATOM     19  C   UNL     1      46.099   3.905   7.721  0.00  0.00    +0.000 A 
ATOM     20  C   UNL     1      46.527   2.599   7.459  0.00  0.00    +0.000 A 
ATOM     21  C   UNL     1      46.000   1.539   8.204  0.00  0.00    +0.000 A 
ATOM     22  C   UNL     1      45.058   1.795   9.210  0.00  0.00    +0.000 A 
BRANCH  20  23
ATOM     23  C   UNL     1      47.522   2.404   6.372  0.00  0.00    +0.000 C 
ATOM     24  N   UNL     1      47.320   3.075   5.200  0.00  0.00    +0.000 N 
ATOM     25  O   UNL     1      48.470   1.639   6.498  0.00  0.00    +0.000 OA
ATOM     26  H   UNL     1      46.441   3.514   4.967  0.00  0.00    +0.000 HD
ATOM     27  H   UNL     1      47.943   2.834   4.440  0.00  0.00    +0.000 HD
ENDBRANCH  20  23
ENDBRANCH  16  17
ENDBRANCH  15  16
ENDBRANCH   2  15
TORSDOF 7
ENDMDL
MODEL 3
REMARK VINA RESULT:    -6.557      1.698      8.211
REMARK INTER + INTRA:         -10.415
REMARK INTER:                  -9.692
REMARK INTRA:                  -0.723
REMARK UNBOUND:                -1.175
REMARK  Name = 
REMARK  8 active torsions:
REMARK  status: ('A' for Active; 'I' for Inactive)
REMARK    1  A    between atoms: C_1  and  C_2
REMARK    2  A    between atoms: C_2  and  C_3
REMARK    3  A    between atoms: C_2  and  C_14
REMARK    4  A    between atoms: C_3  and  O_4
REMARK    5  A    between atoms: O_4  and  C_5
REMARK    6  A    between atoms: C_8  and  C_9
REMARK    7  A    between atoms: C_18  and  O_19
REMARK    8  A    between atoms: O_19  and  C_20
REMARK                            x       y       z     vdW  Elec       q    Type
REMARK                         _______ _______ _______ _____ _____    ______ ____
ROOT
ATOM      1  C   UNL     1      46.624   6.658  10.683  0.00  0.00    +0.000 C 
ATOM      2  C   UNL     1      45.398   5.939  11.262  0.00  0.00    +0.000 C 
ENDROOT
BRANCH   2   3
ATOM      3  C   UNL     1      45.112   4.659  10.495  0.00  0.00    +0.000 A 
ATOM      4  C   UNL     1      44.431   3.603  11.117  0.00  0.00    +0.000 A 
ATOM      5  C   UNL     1      44.148   2.431  10.413  0.00  0.00    +0.000 A 
ATOM      6  C   UNL     1      44.543   2.292   9.081  0.00  0.00    +0.000 A 
ATOM      7  C   UNL     1      45.230   3.328   8.456  0.00  0.00    +0.000 A 
ATOM      8  C   UNL     1      45.506   4.504   9.157  0.00  0.00    +0.000 A 
BRANCH   7   9
ATOM      9  O   UNL     1      45.642   3.326   7.148  0.00  0.00    +0.000 OA
BRANCH   9  10
ATOM     10  C   UNL     1      47.048   3.175   6.856  0.00  0.00    +0.000 C 
ATOM     11  C   UNL     1      47.459   2.911   5.394  0.00  0.00    +0.000 C 
ATOM     12  N   UNL     1      48.235   1.731   5.809  0.00  0.00    +0.000 NA
ATOM     13  C   UNL     1      47.612   1.768   7.141  0.00  0.00    +0.000 C 
ATOM     14  H   UNL     1      49.244   1.876   5.820  0.00  0.00    +0.000 HD
ENDBRANCH   9  10
ENDBRANCH   7   9
ENDBRANCH   2   3
BRANCH   2  15
ATOM     15  C   UNL     1      45.596   5.700  12.771  0.00  0.00    +0.000 C 
BRANCH  15  16
ATOM     16  O   UNL     1      46.918   6.092  13.164  0.00  0.00    +0.000 OA
BRANCH  16  17
ATOM     17  C   UNL     1      47.342   5.581  14.359  0.00  0.00    +0.000 A 
ATOM     18  C   UNL     1      46.948   4.347  14.881  0.00  0.00    +0.000 A 
ATOM     19  C   UNL     1      47.451   3.907  16.107  0.00  0.00    +0.000 A 
ATOM     20  C   UNL     1      48.367   4.689  16.819  0.00  0.00    +0.000 A 
ATOM     21  C   UNL     1      48.770   5.924  16.298  0.00  0.00    +0.000 A 
ATOM     22  C   UNL     1      48.262   6.360  15.068  0.00  0.00    +0.000 A 
BRANCH  20  23
ATOM     23  C   UNL     1      48.856   4.165  18.121  0.00  0.00    +0.000 C 
ATOM     24  N   UNL     1      47.972   4.125  19.161  0.00  0.00    +0.000 N 
ATOM     25  O   UNL     1      50.020   3.817  18.277  0.00  0.00    +0.000 OA
ATOM     26  H   UNL     1      47.092   4.619  19.148  0.00  0.00    +0.000 HD
ATOM     27  H   UNL     1      48.361   3.877  20.062  0.00  0.00    +0.000 HD
ENDBRANCH  20  23
ENDBRANCH  16  17
ENDBRANCH  15  16
ENDBRANCH   2  15
TORSDOF 7
ENDMDL
MODEL 4
REMARK VINA RESULT:    -6.502      2.911      4.091
REMARK INTER + INTRA:         -10.338
REMARK INTER:                  -9.633
REMARK INTRA:                  -0.705
REMARK UNBOUND:                -1.175
REMARK  Name = 
REMARK  8 active torsions:
REMARK  status: ('A' for Active; 'I' for Inactive)
REMARK    1  A    between atoms: C_1  and  C_2
REMARK    2  A    between atoms: C_2  and  C_3
REMARK    3  A    between atoms: C_2  and  C_14
REMARK    4  A    between atoms: C_3  and  O_4
REMARK    5  A    between atoms: O_4  and  C_5
REMARK    6  A    between atoms: C_8  and  C_9
REMARK    7  A    between atoms: C_18  and  O_19
REMARK    8  A    between atoms: O_19  and  C_20
REMARK                            x       y       z     vdW  Elec       q    Type
REMARK                         _______ _______ _______ _____ _____    ______ ____
ROOT
ATOM      1  C   UNL     1      45.529   4.606  12.982  0.00  0.00    +0.000 C 
ATOM      2  C   UNL     1      44.845   5.851  12.400  0.00  0.00    +0.000 C 
ENDROOT
BRANCH   2   3
ATOM      3  C   UNL     1      45.817   7.016  12.332  0.00  0.00    +0.000 A 
ATOM      4  C   UNL     1      45.444   8.274  12.827  0.00  0.00    +0.000 A 
ATOM      5  C   UNL     1      46.338   9.346  12.785  0.00  0.00    +0.000 A 
ATOM      6  C   UNL     1      47.614   9.182  12.245  0.00  0.00    +0.000 A 
ATOM      7  C   UNL     1      47.993   7.942  11.739  0.00  0.00    +0.000 A 
ATOM      8  C   UNL     1      47.102   6.867  11.788  0.00  0.00    +0.000 A 
BRANCH   7   9
ATOM      9  O   UNL     1      49.225   7.646  11.214  0.00  0.00    +0.000 OA
BRANCH   9  10
ATOM     10  C   UNL     1      50.382   8.365  11.693  0.00  0.00    +0.000 C 
ATOM     11  C   UNL     1      50.729   9.709  11.021  0.00  0.00    +0.000 C 
ATOM     12  N   UNL     1      52.105   9.250  10.778  0.00  0.00    +0.000 NA
ATOM     13  C   UNL     1      51.725   7.871  11.117  0.00  0.00    +0.000 C 
ATOM     14  H   UNL     1      52.799   9.655  11.407  0.00  0.00    +0.000 HD
ENDBRANCH   9  10
ENDBRANCH   7   9
ENDBRANCH   2   3
BRANCH   2  15
ATOM     15  C   UNL     1      44.220   5.513  11.034  0.00  0.00    +0.000 C 
BRANCH  15  16
ATOM     16  O   UNL     1      44.178   4.092  10.848  0.00  0.00    +0.000 OA
BRANCH  16  17
ATOM     17  C   UNL     1      44.930   3.622   9.806  0.00  0.00    +0.000 A 
ATOM     18  C   UNL     1      45.103   2.271   9.496  0.00  0.00    +0.000 A 
ATOM     19  C   UNL     1      45.878   1.894   8.398  0.00  0.00    +0.000 A 
ATOM     20  C   UNL     1      46.479   2.863   7.588  0.00  0.00    +0.000 A 
ATOM     21  C   UNL     1      46.305   4.218   7.891  0.00  0.00    +0.000 A 
ATOM     22  C   UNL     1      45.525   4.591   8.993  0.00  0.00    +0.000 A 
BRANCH  20  23
ATOM     23  C   UNL     1      47.299   2.392   6.441  0.00  0.00    +0.000 C 
ATOM     24  N   UNL     1      47.103   2.995   5.231  0.00  0.00    +0.000 N 
ATOM     25  O   UNL     1      48.096   1.468   6.557  0.00  0.00    +0.000 OA
ATOM     26  H   UNL     1      46.303   3.577   5.035  0.00  0.00    +0.000 HD
ATOM     27  H   UNL     1      47.587   2.576   4.447  0.00  0.00    +0.000 HD
ENDBRANCH  20  23
ENDBRANCH  16  17
ENDBRANCH  15  16
ENDBRANCH   2  15
TORSDOF 7
ENDMDL
MODEL 5
REMARK VINA RESULT:    -6.308      2.933      4.599
REMARK INTER + INTRA:         -10.064
REMARK INTER:                  -8.870
REMARK INTRA:                  -1.194
REMARK UNBOUND:                -1.175
REMARK  Name = 
REMARK  8 active torsions:
REMARK  status: ('A' for Active; 'I' for Inactive)
REMARK    1  A    between atoms: C_1  and  C_2
REMARK    2  A    between atoms: C_2  and  C_3
REMARK    3  A    between atoms: C_2  and  C_14
REMARK    4  A    between atoms: C_3  and  O_4
REMARK    5  A    between atoms: O_4  and  C_5
REMARK    6  A    between atoms: C_8  and  C_9
REMARK    7  A    between atoms: C_18  and  O_19
REMARK    8  A    between atoms: O_19  and  C_20
REMARK                            x       y       z     vdW  Elec       q    Type
REMARK                         _______ _______ _______ _____ _____    ______ ____
ROOT
ATOM      1  C   UNL     1      49.156   8.457  11.736  0.00  0.00    +0.000 C 
ATOM      2  C   UNL     1      48.036   7.741  12.503  0.00  0.00    +0.000 C 
ENDROOT
BRANCH   2   3
ATOM      3  C   UNL     1      48.352   7.685  13.988  0.00  0.00    +0.000 A 
ATOM      4  C   UNL     1      48.371   8.863  14.748  0.00  0.00    +0.000 A 
ATOM      5  C   UNL     1      48.642   8.819  16.117  0.00  0.00    +0.000 A 
ATOM      6  C   UNL     1      48.902   7.600  16.748  0.00  0.00    +0.000 A 
ATOM      7  C   UNL     1      48.897   6.425  16.002  0.00  0.00    +0.000 A 
ATOM      8  C   UNL     1      48.618   6.468  14.635  0.00  0.00    +0.000 A 
BRANCH   7   9
ATOM      9  O   UNL     1      49.104   5.168  16.509  0.00  0.00    +0.000 OA
BRANCH   9  10
ATOM     10  C   UNL     1      48.185   4.649  17.494  0.00  0.00    +0.000 C 
ATOM     11  C   UNL     1      48.382   3.197  17.975  0.00  0.00    +0.000 C 
ATOM     12  N   UNL     1      46.978   2.887  17.665  0.00  0.00    +0.000 NA
ATOM     13  C   UNL     1      46.846   4.146  16.916  0.00  0.00    +0.000 C 
ATOM     14  H   UNL     1      46.372   2.827  18.483  0.00  0.00    +0.000 HD
ENDBRANCH   9  10
ENDBRANCH   7   9
ENDBRANCH   2   3
BRANCH   2  15
ATOM     15  C   UNL     1      46.684   8.415  12.204  0.00  0.00    +0.000 C 
BRANCH  15  16
ATOM     16  O   UNL     1      45.648   7.816  12.996  0.00  0.00    +0.000 OA
BRANCH  16  17
ATOM     17  C   UNL     1      45.240   6.581  12.575  0.00  0.00    +0.000 A 
ATOM     18  C   UNL     1      45.182   5.445  13.385  0.00  0.00    +0.000 A 
ATOM     19  C   UNL     1      44.734   4.230  12.864  0.00  0.00    +0.000 A 
ATOM     20  C   UNL     1      44.323   4.139  11.530  0.00  0.00    +0.000 A 
ATOM     21  C   UNL     1      44.374   5.275  10.715  0.00  0.00    +0.000 A 
ATOM     22  C   UNL     1      44.824   6.492  11.244  0.00  0.00    +0.000 A 
BRANCH  20  23
ATOM     23  C   UNL     1      43.866   2.813  11.037  0.00  0.00    +0.000 C 
ATOM     24  N   UNL     1      44.473   2.307   9.923  0.00  0.00    +0.000 N 
ATOM     25  O   UNL     1      42.950   2.207  11.580  0.00  0.00    +0.000 OA
ATOM     26  H   UNL     1      45.048   2.867   9.313  0.00  0.00    +0.000 HD
ATOM     27  H   UNL     1      44.063   1.463   9.543  0.00  0.00    +0.000 HD
ENDBRANCH  20  23
ENDBRANCH  16  17
ENDBRANCH  15  16
ENDBRANCH   2  15
TORSDOF 7
ENDMDL
MODEL 6
REMARK VINA RESULT:    -6.197      1.869      8.135
REMARK INTER + INTRA:          -9.909
REMARK INTER:                  -9.197
REMARK INTRA:                  -0.712
REMARK UNBOUND:                -1.175
REMARK  Name = 
REMARK  8 active torsions:
REMARK  status: ('A' for Active; 'I' for Inactive)
REMARK    1  A    between atoms: C_1  and  C_2
REMARK    2  A    between atoms: C_2  and  C_3
REMARK    3  A    between atoms: C_2  and  C_14
REMARK    4  A    between atoms: C_3  and  O_4
REMARK    5  A    between atoms: O_4  and  C_5
REMARK    6  A    between atoms: C_8  and  C_9
REMARK    7  A    between atoms: C_18  and  O_19
REMARK    8  A    between atoms: O_19  and  C_20
REMARK                            x       y       z     vdW  Elec       q    Type
REMARK                         _______ _______ _______ _____ _____    ______ ____
ROOT
ATOM      1  C   UNL     1      46.019   8.650  12.604  0.00  0.00    +0.000 C 
ATOM      2  C   UNL     1      46.150   7.185  13.043  0.00  0.00    +0.000 C 
ENDROOT
BRANCH   2   3
ATOM      3  C   UNL     1      45.302   6.282  12.164  0.00  0.00    +0.000 A 
ATOM      4  C   UNL     1      44.087   5.772  12.645  0.00  0.00    +0.000 A 
ATOM      5  C   UNL     1      43.292   4.956  11.837  0.00  0.00    +0.000 A 
ATOM      6  C   UNL     1      43.698   4.632  10.541  0.00  0.00    +0.000 A 
ATOM      7  C   UNL     1      44.907   5.122  10.057  0.00  0.00    +0.000 A 
ATOM      8  C   UNL     1      45.699   5.945  10.861  0.00  0.00    +0.000 A 
BRANCH   7   9
ATOM      9  O   UNL     1      45.399   4.904   8.796  0.00  0.00    +0.000 OA
BRANCH   9  10
ATOM     10  C   UNL     1      45.192   3.616   8.176  0.00  0.00    +0.000 C 
ATOM     11  C   UNL     1      45.487   2.354   9.012  0.00  0.00    +0.000 C 
ATOM     12  N   UNL     1      46.362   1.835   7.950  0.00  0.00    +0.000 NA
ATOM     13  C   UNL     1      46.356   3.144   7.280  0.00  0.00    +0.000 C 
ATOM     14  H   UNL     1      45.948   1.085   7.396  0.00  0.00    +0.000 HD
ENDBRANCH   9  10
ENDBRANCH   7   9
ENDBRANCH   2   3
BRANCH   2  15
ATOM     15  C   UNL     1      47.635   6.777  13.063  0.00  0.00    +0.000 C 
BRANCH  15  16
ATOM     16  O   UNL     1      47.776   5.454  13.597  0.00  0.00    +0.000 OA
BRANCH  16  17
ATOM     17  C   UNL     1      47.884   5.388  14.959  0.00  0.00    +0.000 A 
ATOM     18  C   UNL     1      48.622   6.278  15.742  0.00  0.00    +0.000 A 
ATOM     19  C   UNL     1      48.656   6.135  17.130  0.00  0.00    +0.000 A 
ATOM     20  C   UNL     1      47.939   5.108  17.755  0.00  0.00    +0.000 A 
ATOM     21  C   UNL     1      47.193   4.217  16.976  0.00  0.00    +0.000 A 
ATOM     22  C   UNL     1      47.163   4.366  15.583  0.00  0.00    +0.000 A 
BRANCH  20  23
ATOM     23  C   UNL     1      48.026   5.008  19.235  0.00  0.00    +0.000 C 
ATOM     24  N   UNL     1      48.471   3.831  19.766  0.00  0.00    +0.000 N 
ATOM     25  O   UNL     1      47.675   5.928  19.963  0.00  0.00    +0.000 OA
ATOM     26  H   UNL     1      48.536   2.980  19.227  0.00  0.00    +0.000 HD
ATOM     27  H   UNL     1      48.408   3.749  20.773  0.00  0.00    +0.000 HD
ENDBRANCH  20  23
ENDBRANCH  16  17
ENDBRANCH  15  16
ENDBRANCH   2  15
TORSDOF 7
ENDMDL
MODEL 7
REMARK VINA RESULT:    -6.114      4.342      6.946
REMARK INTER + INTRA:          -9.791
REMARK INTER:                  -8.402
REMARK INTRA:                  -1.389
REMARK UNBOUND:                -1.175
REMARK  Name = 
REMARK  8 active torsions:
REMARK  status: ('A' for Active; 'I' for Inactive)
REMARK    1  A    between atoms: C_1  and  C_2
REMARK    2  A    between atoms: C_2  and  C_3
REMARK    3  A    between atoms: C_2  and  C_14
REMARK    4  A    between atoms: C_3  and  O_4
REMARK    5  A    between atoms: O_4  and  C_5
REMARK    6  A    between atoms: C_8  and  C_9
REMARK    7  A    between atoms: C_18  and  O_19
REMARK    8  A    between atoms: O_19  and  C_20
REMARK                            x       y       z     vdW  Elec       q    Type
REMARK                         _______ _______ _______ _____ _____    ______ ____
ROOT
ATOM      1  C   UNL     1      50.168   7.950  11.737  0.00  0.00    +0.000 C 
ATOM      2  C   UNL     1      49.342   8.745  12.756  0.00  0.00    +0.000 C 
ENDROOT
BRANCH   2   3
ATOM      3  C   UNL     1      48.525   9.823  12.064  0.00  0.00    +0.000 A 
ATOM      4  C   UNL     1      49.123  10.647  11.099  0.00  0.00    +0.000 A 
ATOM      5  C   UNL     1      48.375  11.628  10.444  0.00  0.00    +0.000 A 
ATOM      6  C   UNL     1      47.023  11.806  10.745  0.00  0.00    +0.000 A 
ATOM      7  C   UNL     1      46.422  11.003  11.709  0.00  0.00    +0.000 A 
ATOM      8  C   UNL     1      47.167  10.016  12.358  0.00  0.00    +0.000 A 
BRANCH   7   9
ATOM      9  O   UNL     1      45.100  11.057  12.069  0.00  0.00    +0.000 OA
BRANCH   9  10
ATOM     10  C   UNL     1      44.090  10.801  11.068  0.00  0.00    +0.000 C 
ATOM     11  C   UNL     1      42.613  11.009  11.461  0.00  0.00    +0.000 C 
ATOM     12  N   UNL     1      42.282   9.653  10.995  0.00  0.00    +0.000 NA
ATOM     13  C   UNL     1      43.711   9.314  10.908  0.00  0.00    +0.000 C 
ATOM     14  H   UNL     1      41.796   9.625  10.099  0.00  0.00    +0.000 HD
ENDBRANCH   9  10
ENDBRANCH   7   9
ENDBRANCH   2   3
BRANCH   2  15
ATOM     15  C   UNL     1      48.476   7.784  13.591  0.00  0.00    +0.000 C 
BRANCH  15  16
ATOM     16  O   UNL     1      48.367   6.516  12.930  0.00  0.00    +0.000 OA
BRANCH  16  17
ATOM     17  C   UNL     1      47.091   6.123  12.637  0.00  0.00    +0.000 A 
ATOM     18  C   UNL     1      46.223   5.503  13.539  0.00  0.00    +0.000 A 
ATOM     19  C   UNL     1      44.930   5.154  13.147  0.00  0.00    +0.000 A 
ATOM     20  C   UNL     1      44.482   5.434  11.851  0.00  0.00    +0.000 A 
ATOM     21  C   UNL     1      45.345   6.060  10.945  0.00  0.00    +0.000 A 
ATOM     22  C   UNL     1      46.642   6.409  11.345  0.00  0.00    +0.000 A 
BRANCH  20  23
ATOM     23  C   UNL     1      43.097   5.027  11.497  0.00  0.00    +0.000 C 
ATOM     24  N   UNL     1      42.089   5.907  11.769  0.00  0.00    +0.000 N 
ATOM     25  O   UNL     1      42.854   3.928  11.016  0.00  0.00    +0.000 OA
ATOM     26  H   UNL     1      42.209   6.704  12.376  0.00  0.00    +0.000 HD
ATOM     27  H   UNL     1      41.149   5.559  11.628  0.00  0.00    +0.000 HD
ENDBRANCH  20  23
ENDBRANCH  16  17
ENDBRANCH  15  16
ENDBRANCH   2  15
TORSDOF 7
ENDMDL
MODEL 8
REMARK VINA RESULT:    -6.105      3.206      7.243
REMARK INTER + INTRA:          -9.778
REMARK INTER:                  -8.971
REMARK INTRA:                  -0.807
REMARK UNBOUND:                -1.175
REMARK  Name = 
REMARK  8 active torsions:
REMARK  status: ('A' for Active; 'I' for Inactive)
REMARK    1  A    between atoms: C_1  and  C_2
REMARK    2  A    between atoms: C_2  and  C_3
REMARK    3  A    between atoms: C_2  and  C_14
REMARK    4  A    between atoms: C_3  and  O_4
REMARK    5  A    between atoms: O_4  and  C_5
REMARK    6  A    between atoms: C_8  and  C_9
REMARK    7  A    between atoms: C_18  and  O_19
REMARK    8  A    between atoms: O_19  and  C_20
REMARK                            x       y       z     vdW  Elec       q    Type
REMARK                         _______ _______ _______ _____ _____    ______ ____
ROOT
ATOM      1  C   UNL     1      42.829   5.651  12.242  0.00  0.00    +0.000 C 
ATOM      2  C   UNL     1      44.294   5.552  11.795  0.00  0.00    +0.000 C 
ENDROOT
BRANCH   2   3
ATOM      3  C   UNL     1      44.482   4.404  10.818  0.00  0.00    +0.000 A 
ATOM      4  C   UNL     1      43.851   3.173  11.048  0.00  0.00    +0.000 A 
ATOM      5  C   UNL     1      44.003   2.119  10.146  0.00  0.00    +0.000 A 
ATOM      6  C   UNL     1      44.789   2.275   9.002  0.00  0.00    +0.000 A 
ATOM      7  C   UNL     1      45.430   3.487   8.768  0.00  0.00    +0.000 A 
ATOM      8  C   UNL     1      45.272   4.544   9.667  0.00  0.00    +0.000 A 
BRANCH   7   9
ATOM      9  O   UNL     1      46.200   3.774   7.670  0.00  0.00    +0.000 OA
BRANCH   9  10
ATOM     10  C   UNL     1      46.554   2.707   6.764  0.00  0.00    +0.000 C 
ATOM     11  C   UNL     1      47.901   1.988   6.983  0.00  0.00    +0.000 C 
ATOM     12  N   UNL     1      48.276   2.229   5.581  0.00  0.00    +0.000 NA
ATOM     13  C   UNL     1      47.164   3.180   5.428  0.00  0.00    +0.000 C 
ATOM     14  H   UNL     1      48.203   1.408   4.981  0.00  0.00    +0.000 HD
ENDBRANCH   9  10
ENDBRANCH   7   9
ENDBRANCH   2   3
BRANCH   2  15
ATOM     15  C   UNL     1      44.759   6.905  11.225  0.00  0.00    +0.000 C 
BRANCH  15  16
ATOM     16  O   UNL     1      45.325   7.712  12.267  0.00  0.00    +0.000 OA
BRANCH  16  17
ATOM     17  C   UNL     1      46.637   8.053  12.087  0.00  0.00    +0.000 A 
ATOM     18  C   UNL     1      47.112   9.363  11.995  0.00  0.00    +0.000 A 
ATOM     19  C   UNL     1      48.476   9.607  11.827  0.00  0.00    +0.000 A 
ATOM     20  C   UNL     1      49.385   8.545  11.765  0.00  0.00    +0.000 A 
ATOM     21  C   UNL     1      48.915   7.231  11.863  0.00  0.00    +0.000 A 
ATOM     22  C   UNL     1      47.545   6.991  12.032  0.00  0.00    +0.000 A 
BRANCH  20  23
ATOM     23  C   UNL     1      50.821   8.876  11.576  0.00  0.00    +0.000 C 
ATOM     24  N   UNL     1      51.745   8.010  12.089  0.00  0.00    +0.000 N 
ATOM     25  O   UNL     1      51.175   9.908  11.019  0.00  0.00    +0.000 OA
ATOM     26  H   UNL     1      51.506   7.290  12.755  0.00  0.00    +0.000 HD
ATOM     27  H   UNL     1      52.708   8.318  12.051  0.00  0.00    +0.000 HD
ENDBRANCH  20  23
ENDBRANCH  16  17
ENDBRANCH  15  16
ENDBRANCH   2  15
TORSDOF 7
ENDMDL
MODEL 9
REMARK VINA RESULT:    -5.876      3.104      5.633
REMARK INTER + INTRA:          -9.456
REMARK INTER:                  -8.340
REMARK INTRA:                  -1.116
REMARK UNBOUND:                -1.175
REMARK  Name = 
REMARK  8 active torsions:
REMARK  status: ('A' for Active; 'I' for Inactive)
REMARK    1  A    between atoms: C_1  and  C_2
REMARK    2  A    between atoms: C_2  and  C_3
REMARK    3  A    between atoms: C_2  and  C_14
REMARK    4  A    between atoms: C_3  and  O_4
REMARK    5  A    between atoms: O_4  and  C_5
REMARK    6  A    between atoms: C_8  and  C_9
REMARK    7  A    between atoms: C_18  and  O_19
REMARK    8  A    between atoms: O_19  and  C_20
REMARK                            x       y       z     vdW  Elec       q    Type
REMARK                         _______ _______ _______ _____ _____    ______ ____
ROOT
ATOM      1  C   UNL     1      49.228   9.279  15.048  0.00  0.00    +0.000 C 
ATOM      2  C   UNL     1      50.148   8.254  14.371  0.00  0.00    +0.000 C 
ENDROOT
BRANCH   2   3
ATOM      3  C   UNL     1      50.750   7.310  15.397  0.00  0.00    +0.000 A 
ATOM      4  C   UNL     1      52.131   7.328  15.644  0.00  0.00    +0.000 A 
ATOM      5  C   UNL     1      52.690   6.476  16.599  0.00  0.00    +0.000 A 
ATOM      6  C   UNL     1      51.884   5.593  17.318  0.00  0.00    +0.000 A 
ATOM      7  C   UNL     1      50.515   5.558  17.075  0.00  0.00    +0.000 A 
ATOM      8  C   UNL     1      49.953   6.414  16.126  0.00  0.00    +0.000 A 
BRANCH   7   9
ATOM      9  O   UNL     1      49.615   4.761  17.736  0.00  0.00    +0.000 OA
BRANCH   9  10
ATOM     10  C   UNL     1      48.430   4.316  17.041  0.00  0.00    +0.000 C 
ATOM     11  C   UNL     1      47.064   4.549  17.717  0.00  0.00    +0.000 C 
ATOM     12  N   UNL     1      46.724   3.127  17.558  0.00  0.00    +0.000 NA
ATOM     13  C   UNL     1      48.118   2.815  17.208  0.00  0.00    +0.000 C 
ATOM     14  H   UNL     1      46.058   2.936  16.810  0.00  0.00    +0.000 HD
ENDBRANCH   9  10
ENDBRANCH   7   9
ENDBRANCH   2   3
BRANCH   2  15
ATOM     15  C   UNL     1      49.378   7.516  13.259  0.00  0.00    +0.000 C 
BRANCH  15  16
ATOM     16  O   UNL     1      47.966   7.667  13.452  0.00  0.00    +0.000 OA
BRANCH  16  17
ATOM     17  C   UNL     1      47.209   6.602  13.046  0.00  0.00    +0.000 A 
ATOM     18  C   UNL     1      47.033   5.427  13.780  0.00  0.00    +0.000 A 
ATOM     19  C   UNL     1      46.225   4.402  13.285  0.00  0.00    +0.000 A 
ATOM     20  C   UNL     1      45.571   4.545  12.056  0.00  0.00    +0.000 A 
ATOM     21  C   UNL     1      45.740   5.722  11.319  0.00  0.00    +0.000 A 
ATOM     22  C   UNL     1      46.551   6.748  11.822  0.00  0.00    +0.000 A 
BRANCH  20  23
ATOM     23  C   UNL     1      44.734   3.411  11.584  0.00  0.00    +0.000 C 
ATOM     24  N   UNL     1      44.185   2.592  12.529  0.00  0.00    +0.000 N 
ATOM     25  O   UNL     1      44.570   3.186  10.391  0.00  0.00    +0.000 OA
ATOM     26  H   UNL     1      44.486   2.591  13.492  0.00  0.00    +0.000 HD
ATOM     27  H   UNL     1      43.720   1.764  12.179  0.00  0.00    +0.000 HD
ENDBRANCH  20  23
ENDBRANCH  16  17
ENDBRANCH  15  16
ENDBRANCH   2  15
TORSDOF 7
ENDMDL
