MODEL 1
REMARK VINA RESULT:    -8.350      0.000      0.000
REMARK INTER + INTRA:         -12.145
REMARK INTER:                 -11.279
REMARK INTRA:                  -0.866
REMARK UNBOUND:                -0.866
REMARK  Name = 
REMARK  8 active torsions:
REMARK  status: ('A' for Active; 'I' for Inactive)
REMARK    1  A    between atoms: C_1  and  C_2
REMARK    2  A    between atoms: C_7  and  C_8
REMARK    3  A    between atoms: N_10  and  C_11
REMARK    4  A    between atoms: C_11  and  C_12
REMARK    5  A    between atoms: C_15  and  N_16
REMARK    6  A    between atoms: N_16  and  C_17
REMARK    7  A    between atoms: C_17  and  C_18
REMARK    8  A    between atoms: C_27  and  C_28
REMARK                            x       y       z     vdW  Elec       q    Type
REMARK                         _______ _______ _______ _____ _____    ______ ____
ROOT
ATOM      1  C   UNL     1      46.239   4.663  14.708  0.00  0.00    +0.000 C 
ENDROOT
BRANCH   1   2
ATOM      2  C   UNL     1      46.034   4.641  13.218  0.00  0.00    +0.000 A 
ATOM      3  C   UNL     1      45.496   3.514  12.582  0.00  0.00    +0.000 A 
ATOM      4  C   UNL     1      45.166   3.548  11.218  0.00  0.00    +0.000 A 
ATOM      5  C   UNL     1      45.360   4.706  10.462  0.00  0.00    +0.000 A 
ATOM      6  C   UNL     1      45.994   5.791  11.078  0.00  0.00    +0.000 A 
ATOM      7  C   UNL     1      46.315   5.769  12.441  0.00  0.00    +0.000 A 
BRANCH   5   8
ATOM      8  N   UNL     1      45.023   4.832   9.114  0.00  0.00    +0.000 N 
ATOM      9  H   UNL     1      45.750   5.329   8.602  0.00  0.00    +0.000 HD
BRANCH   8  10
ATOM     10  C   UNL     1      44.551   3.661   8.385  0.00  0.00    +0.000 C 
BRANCH  10  11
ATOM     11  C   UNL     1      45.741   2.901   7.845  0.00  0.00    +0.000 A 
ATOM     12  C   UNL     1      46.721   3.524   7.068  0.00  0.00    +0.000 A 
ATOM     13  C   UNL     1      47.808   2.775   6.640  0.00  0.00    +0.000 A 
ATOM     14  N   UNL     1      47.984   1.468   6.930  0.00  0.00    +0.000 NA
ATOM     15  C   UNL     1      47.026   0.880   7.679  0.00  0.00    +0.000 A 
ATOM     16  C   UNL     1      45.908   1.544   8.152  0.00  0.00    +0.000 A 
ENDBRANCH  10  11
ENDBRANCH   8  10
ENDBRANCH   5   8
ENDBRANCH   1   2
BRANCH   1  19
ATOM     17  C   UNL     1      47.578   3.554  16.417  0.00  0.00    +0.000 C 
ATOM     18  O   UNL     1      46.573   3.512  17.128  0.00  0.00    +0.000 OA
ATOM     19  N   UNL     1      47.493   4.080  15.133  0.00  0.00    +0.000 N 
ATOM     20  H   UNL     1      48.326   4.326  14.615  0.00  0.00    +0.000 HD
BRANCH  17  27
ATOM     21  C   UNL     1      52.205   6.290  18.928  0.00  0.00    +0.000 C 
ATOM     22  C   UNL     1      51.479   5.130  18.323  0.00  0.00    +0.000 A 
ATOM     23  S   UNL     1      52.275   3.572  18.266  0.00  0.00    +0.000 S 
ATOM     24  C   UNL     1      50.943   2.892  17.524  0.00  0.00    +0.000 A 
ATOM     25  N   UNL     1      50.647   1.636  17.070  0.00  0.00    +0.000 NA
ATOM     26  C   UNL     1      49.365   1.775  16.608  0.00  0.00    +0.000 C 
ATOM     27  C   UNL     1      48.904   3.110  16.742  0.00  0.00    +0.000 C 
ATOM     28  C   UNL     1      49.972   3.803  17.354  0.00  0.00    +0.000 A 
ATOM     29  C   UNL     1      50.191   5.117  17.762  0.00  0.00    +0.000 A 
ATOM     30  C   UNL     1      49.332   6.329  17.667  0.00  0.00    +0.000 C 
ENDBRANCH  17  27
ENDBRANCH   1  19
TORSDOF 6
ENDMDL
MODEL 2
REMARK VINA RESULT:    -8.310      2.212      2.998
REMARK INTER + INTRA:         -12.090
REMARK INTER:                 -11.131
REMARK INTRA:                  -0.959
REMARK UNBOUND:                -0.866
REMARK  Name = 
REMARK  8 active torsions:
REMARK  status: ('A' for Active; 'I' for Inactive)
REMARK    1  A    between atoms: C_1  and  C_2
REMARK    2  A    between atoms: C_7  and  C_8
REMARK    3  A    between atoms: N_10  and  C_11
REMARK    4  A    between atoms: C_11  and  C_12
REMARK    5  A    between atoms: C_15  and  N_16
REMARK    6  A    between atoms: N_16  and  C_17
REMARK    7  A    between atoms: C_17  and  C_18
REMARK    8  A    between atoms: C_27  and  C_28
REMARK                            x       y       z     vdW  Elec       q    Type
REMARK                         _______ _______ _______ _____ _____    ______ ____
ROOT
ATOM      1  C   UNL     1      47.698   6.680  13.674  0.00  0.00    +0.000 C 
ENDROOT
BRANCH   1   2
ATOM      2  C   UNL     1      46.768   5.956  12.738  0.00  0.00    +0.000 A 
ATOM      3  C   UNL     1      46.513   6.450  11.452  0.00  0.00    +0.000 A 
ATOM      4  C   UNL     1      45.767   5.700  10.529  0.00  0.00    +0.000 A 
ATOM      5  C   UNL     1      45.265   4.441  10.868  0.00  0.00    +0.000 A 
ATOM      6  C   UNL     1      45.435   4.002  12.186  0.00  0.00    +0.000 A 
ATOM      7  C   UNL     1      46.188   4.739  13.108  0.00  0.00    +0.000 A 
BRANCH   5   8
ATOM      8  N   UNL     1      44.550   3.619   9.998  0.00  0.00    +0.000 N 
ATOM      9  H   UNL     1      43.579   3.533  10.294  0.00  0.00    +0.000 HD
BRANCH   8  10
ATOM     10  C   UNL     1      44.658   3.837   8.560  0.00  0.00    +0.000 C 
BRANCH  10  11
ATOM     11  C   UNL     1      45.788   2.993   8.014  0.00  0.00    +0.000 A 
ATOM     12  C   UNL     1      45.901   1.634   8.314  0.00  0.00    +0.000 A 
ATOM     13  C   UNL     1      46.940   0.911   7.745  0.00  0.00    +0.000 A 
ATOM     14  N   UNL     1      47.859   1.440   6.909  0.00  0.00    +0.000 NA
ATOM     15  C   UNL     1      47.737   2.757   6.632  0.00  0.00    +0.000 A 
ATOM     16  C   UNL     1      46.735   3.559   7.150  0.00  0.00    +0.000 A 
ENDBRANCH  10  11
ENDBRANCH   8  10
ENDBRANCH   5   8
ENDBRANCH   1   2
BRANCH   1  19
ATOM     17  C   UNL     1      48.810   6.224  15.795  0.00  0.00    +0.000 C 
ATOM     18  O   UNL     1      49.831   6.731  15.329  0.00  0.00    +0.000 OA
ATOM     19  N   UNL     1      47.644   6.200  15.037  0.00  0.00    +0.000 N 
ATOM     20  H   UNL     1      46.866   5.609  15.298  0.00  0.00    +0.000 HD
BRANCH  17  27
ATOM     21  C   UNL     1      47.404   8.471  21.103  0.00  0.00    +0.000 C 
ATOM     22  C   UNL     1      47.739   7.378  20.137  0.00  0.00    +0.000 A 
ATOM     23  S   UNL     1      47.718   5.720  20.697  0.00  0.00    +0.000 S 
ATOM     24  C   UNL     1      48.155   5.177  19.180  0.00  0.00    +0.000 A 
ATOM     25  N   UNL     1      48.395   3.941  18.647  0.00  0.00    +0.000 NA
ATOM     26  C   UNL     1      48.670   4.223  17.336  0.00  0.00    +0.000 C 
ATOM     27  C   UNL     1      48.638   5.620  17.085  0.00  0.00    +0.000 C 
ATOM     28  C   UNL     1      48.290   6.202  18.324  0.00  0.00    +0.000 A 
ATOM     29  C   UNL     1      48.091   7.503  18.783  0.00  0.00    +0.000 A 
ATOM     30  C   UNL     1      48.206   8.815  18.089  0.00  0.00    +0.000 C 
ENDBRANCH  17  27
ENDBRANCH   1  19
TORSDOF 6
ENDMDL
MODEL 3
REMARK VINA RESULT:    -8.190      1.324      2.378
REMARK INTER + INTRA:         -11.928
REMARK INTER:                 -11.119
REMARK INTRA:                  -0.809
REMARK UNBOUND:                -0.866
REMARK  Name = 
REMARK  8 active torsions:
REMARK  status: ('A' for Active; 'I' for Inactive)
REMARK    1  A    between atoms: C_1  and  C_2
REMARK    2  A    between atoms: C_7  and  C_8
REMARK    3  A    between atoms: N_10  and  C_11
REMARK    4  A    between atoms: C_11  and  C_12
REMARK    5  A    between atoms: C_15  and  N_16
REMARK    6  A    between atoms: N_16  and  C_17
REMARK    7  A    between atoms: C_17  and  C_18
REMARK    8  A    between atoms: C_27  and  C_28
REMARK                            x       y       z     vdW  Elec       q    Type
REMARK                         _______ _______ _______ _____ _____    ______ ____
ROOT
ATOM      1  C   UNL     1      45.963   4.321  14.566  0.00  0.00    +0.000 C 
ENDROOT
BRANCH   1   2
ATOM      2  C   UNL     1      45.704   4.594  13.110  0.00  0.00    +0.000 A 
ATOM      3  C   UNL     1      46.258   5.715  12.477  0.00  0.00    +0.000 A 
ATOM      4  C   UNL     1      46.140   5.889  11.089  0.00  0.00    +0.000 A 
ATOM      5  C   UNL     1      45.472   4.947  10.304  0.00  0.00    +0.000 A 
ATOM      6  C   UNL     1      44.832   3.886  10.956  0.00  0.00    +0.000 A 
ATOM      7  C   UNL     1      44.955   3.700  12.337  0.00  0.00    +0.000 A 
BRANCH   5   8
ATOM      8  N   UNL     1      45.345   5.026   8.917  0.00  0.00    +0.000 N 
ATOM      9  H   UNL     1      46.218   5.330   8.489  0.00  0.00    +0.000 HD
BRANCH   8  10
ATOM     10  C   UNL     1      44.746   3.913   8.191  0.00  0.00    +0.000 C 
BRANCH  10  11
ATOM     11  C   UNL     1      45.843   3.008   7.676  0.00  0.00    +0.000 A 
ATOM     12  C   UNL     1      46.039   1.725   8.192  0.00  0.00    +0.000 A 
ATOM     13  C   UNL     1      47.039   0.933   7.644  0.00  0.00    +0.000 A 
ATOM     14  N   UNL     1      47.842   1.325   6.632  0.00  0.00    +0.000 NA
ATOM     15  C   UNL     1      47.641   2.570   6.148  0.00  0.00    +0.000 A 
ATOM     16  C   UNL     1      46.670   3.431   6.628  0.00  0.00    +0.000 A 
ENDBRANCH  10  11
ENDBRANCH   8  10
ENDBRANCH   5   8
ENDBRANCH   1   2
BRANCH   1  19
ATOM     17  C   UNL     1      47.607   4.592  16.346  0.00  0.00    +0.000 C 
ATOM     18  O   UNL     1      47.005   3.730  16.987  0.00  0.00    +0.000 OA
ATOM     19  N   UNL     1      47.178   4.927  15.066  0.00  0.00    +0.000 N 
ATOM     20  H   UNL     1      47.508   5.766  14.609  0.00  0.00    +0.000 HD
BRANCH  17  27
ATOM     21  C   UNL     1      53.002   2.957  18.195  0.00  0.00    +0.000 C 
ATOM     22  C   UNL     1      51.937   3.936  17.815  0.00  0.00    +0.000 A 
ATOM     23  S   UNL     1      52.322   5.643  17.810  0.00  0.00    +0.000 S 
ATOM     24  C   UNL     1      50.767   6.017  17.328  0.00  0.00    +0.000 A 
ATOM     25  N   UNL     1      50.112   7.187  17.062  0.00  0.00    +0.000 NA
ATOM     26  C   UNL     1      48.869   6.759  16.679  0.00  0.00    +0.000 C 
ATOM     27  C   UNL     1      48.759   5.345  16.753  0.00  0.00    +0.000 C 
ATOM     28  C   UNL     1      50.032   4.905  17.177  0.00  0.00    +0.000 A 
ATOM     29  C   UNL     1      50.607   3.665  17.450  0.00  0.00    +0.000 A 
ATOM     30  C   UNL     1      50.038   2.291  17.412  0.00  0.00    +0.000 C 
ENDBRANCH  17  27
ENDBRANCH   1  19
TORSDOF 6
ENDMDL
MODEL 4
REMARK VINA RESULT:    -8.136      2.376      3.227
REMARK INTER + INTRA:         -11.856
REMARK INTER:                 -10.987
REMARK INTRA:                  -0.868
REMARK UNBOUND:                -0.866
REMARK  Name = 
REMARK  8 active torsions:
REMARK  status: ('A' for Active; 'I' for Inactive)
REMARK    1  A    between atoms: C_1  and  C_2
REMARK    2  A    between atoms: C_7  and  C_8
REMARK    3  A    between atoms: N_10  and  C_11
REMARK    4  A    between atoms: C_11  and  C_12
REMARK    5  A    between atoms: C_15  and  N_16
REMARK    6  A    between atoms: N_16  and  C_17
REMARK    7  A    between atoms: C_17  and  C_18
REMARK    8  A    between atoms: C_27  and  C_28
REMARK                            x       y       z     vdW  Elec       q    Type
REMARK                         _______ _______ _______ _____ _____    ______ ____
ROOT
ATOM      1  C   UNL     1      46.568   4.482  14.389  0.00  0.00    +0.000 C 
ENDROOT
BRANCH   1   2
ATOM      2  C   UNL     1      46.054   4.662  12.986  0.00  0.00    +0.000 A 
ATOM      3  C   UNL     1      46.392   5.795  12.235  0.00  0.00    +0.000 A 
ATOM      4  C   UNL     1      46.036   5.892  10.880  0.00  0.00    +0.000 A 
ATOM      5  C   UNL     1      45.342   4.859  10.247  0.00  0.00    +0.000 A 
ATOM      6  C   UNL     1      44.917   3.779  11.029  0.00  0.00    +0.000 A 
ATOM      7  C   UNL     1      45.278   3.670  12.377  0.00  0.00    +0.000 A 
BRANCH   5   8
ATOM      8  N   UNL     1      44.986   4.861   8.898  0.00  0.00    +0.000 N 
ATOM      9  H   UNL     1      45.690   5.339   8.337  0.00  0.00    +0.000 HD
BRANCH   8  10
ATOM     10  C   UNL     1      44.551   3.617   8.273  0.00  0.00    +0.000 C 
BRANCH  10  11
ATOM     11  C   UNL     1      45.765   2.828   7.839  0.00  0.00    +0.000 A 
ATOM     12  C   UNL     1      45.936   1.489   8.195  0.00  0.00    +0.000 A 
ATOM     13  C   UNL     1      47.055   0.813   7.727  0.00  0.00    +0.000 A 
ATOM     14  N   UNL     1      47.999   1.372   6.940  0.00  0.00    +0.000 NA
ATOM     15  C   UNL     1      47.820   2.669   6.609  0.00  0.00    +0.000 A 
ATOM     16  C   UNL     1      46.737   3.424   7.025  0.00  0.00    +0.000 A 
ENDBRANCH  10  11
ENDBRANCH   8  10
ENDBRANCH   5   8
ENDBRANCH   1   2
BRANCH   1  19
ATOM     17  C   UNL     1      48.234   5.392  15.919  0.00  0.00    +0.000 C 
ATOM     18  O   UNL     1      48.419   4.251  16.343  0.00  0.00    +0.000 OA
ATOM     19  N   UNL     1      47.339   5.605  14.876  0.00  0.00    +0.000 N 
ATOM     20  H   UNL     1      47.007   6.534  14.656  0.00  0.00    +0.000 HD
BRANCH  17  27
ATOM     21  C   UNL     1      48.102   8.233  21.126  0.00  0.00    +0.000 C 
ATOM     22  C   UNL     1      48.526   8.019  19.707  0.00  0.00    +0.000 A 
ATOM     23  S   UNL     1      49.687   9.119  18.997  0.00  0.00    +0.000 S 
ATOM     24  C   UNL     1      49.633   8.283  17.553  0.00  0.00    +0.000 A 
ATOM     25  N   UNL     1      50.250   8.438  16.343  0.00  0.00    +0.000 NA
ATOM     26  C   UNL     1      49.775   7.376  15.622  0.00  0.00    +0.000 C 
ATOM     27  C   UNL     1      48.847   6.608  16.373  0.00  0.00    +0.000 C 
ATOM     28  C   UNL     1      48.792   7.240  17.635  0.00  0.00    +0.000 A 
ATOM     29  C   UNL     1      48.097   7.016  18.821  0.00  0.00    +0.000 A 
ATOM     30  C   UNL     1      47.089   5.984  19.187  0.00  0.00    +0.000 C 
ENDBRANCH  17  27
ENDBRANCH   1  19
TORSDOF 6
ENDMDL
MODEL 5
REMARK VINA RESULT:    -7.978      3.460      4.982
REMARK INTER + INTRA:         -11.642
REMARK INTER:                 -10.612
REMARK INTRA:                  -1.031
REMARK UNBOUND:                -0.866
REMARK  Name = 
REMARK  8 active torsions:
REMARK  status: ('A' for Active; 'I' for Inactive)
REMARK    1  A    between atoms: C_1  and  C_2
REMARK    2  A    between atoms: C_7  and  C_8
REMARK    3  A    between atoms: N_10  and  C_11
REMARK    4  A    between atoms: C_11  and  C_12
REMARK    5  A    between atoms: C_15  and  N_16
REMARK    6  A    between atoms: N_16  and  C_17
REMARK    7  A    between atoms: C_17  and  C_18
REMARK    8  A    between atoms: C_27  and  C_28
REMARK                            x       y       z     vdW  Elec       q    Type
REMARK                         _______ _______ _______ _____ _____    ______ ____
ROOT
ATOM      1  C   UNL     1      46.973   5.064  14.342  0.00  0.00    +0.000 C 
ENDROOT
BRANCH   1   2
ATOM      2  C   UNL     1      46.155   4.703  13.132  0.00  0.00    +0.000 A 
ATOM      3  C   UNL     1      45.851   5.661  12.155  0.00  0.00    +0.000 A 
ATOM      4  C   UNL     1      45.219   5.291  10.958  0.00  0.00    +0.000 A 
ATOM      5  C   UNL     1      44.880   3.959  10.708  0.00  0.00    +0.000 A 
ATOM      6  C   UNL     1      45.091   3.027  11.731  0.00  0.00    +0.000 A 
ATOM      7  C   UNL     1      45.732   3.386  12.922  0.00  0.00    +0.000 A 
BRANCH   5   8
ATOM      8  N   UNL     1      44.286   3.506   9.530  0.00  0.00    +0.000 N 
ATOM      9  H   UNL     1      43.272   3.591   9.578  0.00  0.00    +0.000 HD
BRANCH   8  10
ATOM     10  C   UNL     1      44.807   3.965   8.247  0.00  0.00    +0.000 C 
BRANCH  10  11
ATOM     11  C   UNL     1      45.866   2.999   7.767  0.00  0.00    +0.000 A 
ATOM     12  C   UNL     1      45.926   1.683   8.232  0.00  0.00    +0.000 A 
ATOM     13  C   UNL     1      46.899   0.838   7.718  0.00  0.00    +0.000 A 
ATOM     14  N   UNL     1      47.802   1.208   6.785  0.00  0.00    +0.000 NA
ATOM     15  C   UNL     1      47.733   2.484   6.348  0.00  0.00    +0.000 A 
ATOM     16  C   UNL     1      46.797   3.399   6.801  0.00  0.00    +0.000 A 
ENDBRANCH  10  11
ENDBRANCH   8  10
ENDBRANCH   5   8
ENDBRANCH   1   2
BRANCH   1  19
ATOM     17  C   UNL     1      48.562   6.777  15.037  0.00  0.00    +0.000 C 
ATOM     18  O   UNL     1      49.274   5.883  15.496  0.00  0.00    +0.000 OA
ATOM     19  N   UNL     1      47.383   6.451  14.376  0.00  0.00    +0.000 N 
ATOM     20  H   UNL     1      46.682   7.154  14.185  0.00  0.00    +0.000 HD
BRANCH  17  27
ATOM     21  C   UNL     1      49.279  10.861  10.793  0.00  0.00    +0.000 C 
ATOM     22  C   UNL     1      49.159  10.376  12.204  0.00  0.00    +0.000 A 
ATOM     23  S   UNL     1      49.179  11.546  13.504  0.00  0.00    +0.000 S 
ATOM     24  C   UNL     1      49.016  10.329  14.636  0.00  0.00    +0.000 A 
ATOM     25  N   UNL     1      48.943  10.305  16.001  0.00  0.00    +0.000 NA
ATOM     26  C   UNL     1      48.776   8.974  16.272  0.00  0.00    +0.000 C 
ATOM     27  C   UNL     1      48.789   8.193  15.087  0.00  0.00    +0.000 C 
ATOM     28  C   UNL     1      48.943   9.129  14.040  0.00  0.00    +0.000 A 
ATOM     29  C   UNL     1      49.034   9.050  12.651  0.00  0.00    +0.000 A 
ATOM     30  C   UNL     1      49.025   7.878  11.734  0.00  0.00    +0.000 C 
ENDBRANCH  17  27
ENDBRANCH   1  19
TORSDOF 6
ENDMDL
MODEL 6
REMARK VINA RESULT:    -7.708      2.416      3.335
REMARK INTER + INTRA:         -11.278
REMARK INTER:                 -10.306
REMARK INTRA:                  -0.972
REMARK UNBOUND:                -0.866
REMARK  Name = 
REMARK  8 active torsions:
REMARK  status: ('A' for Active; 'I' for Inactive)
REMARK    1  A    between atoms: C_1  and  C_2
REMARK    2  A    between atoms: C_7  and  C_8
REMARK    3  A    between atoms: N_10  and  C_11
REMARK    4  A    between atoms: C_11  and  C_12
REMARK    5  A    between atoms: C_15  and  N_16
REMARK    6  A    between atoms: N_16  and  C_17
REMARK    7  A    between atoms: C_17  and  C_18
REMARK    8  A    between atoms: C_27  and  C_28
REMARK                            x       y       z     vdW  Elec       q    Type
REMARK                         _______ _______ _______ _____ _____    ______ ____
ROOT
ATOM      1  C   UNL     1      47.184   3.902  14.924  0.00  0.00    +0.000 C 
ENDROOT
BRANCH   1   2
ATOM      2  C   UNL     1      46.538   4.349  13.641  0.00  0.00    +0.000 A 
ATOM      3  C   UNL     1      46.865   5.582  13.062  0.00  0.00    +0.000 A 
ATOM      4  C   UNL     1      46.376   5.933  11.794  0.00  0.00    +0.000 A 
ATOM      5  C   UNL     1      45.556   5.060  11.075  0.00  0.00    +0.000 A 
ATOM      6  C   UNL     1      45.149   3.877  11.705  0.00  0.00    +0.000 A 
ATOM      7  C   UNL     1      45.642   3.516  12.964  0.00  0.00    +0.000 A 
BRANCH   5   8
ATOM      8  N   UNL     1      45.063   5.317   9.796  0.00  0.00    +0.000 N 
ATOM      9  H   UNL     1      45.764   5.782   9.223  0.00  0.00    +0.000 HD
BRANCH   8  10
ATOM     10  C   UNL     1      44.387   4.250   9.066  0.00  0.00    +0.000 C 
BRANCH  10  11
ATOM     11  C   UNL     1      45.421   3.390   8.375  0.00  0.00    +0.000 A 
ATOM     12  C   UNL     1      46.368   3.936   7.506  0.00  0.00    +0.000 A 
ATOM     13  C   UNL     1      47.314   3.093   6.938  0.00  0.00    +0.000 A 
ATOM     14  N   UNL     1      47.381   1.766   7.175  0.00  0.00    +0.000 NA
ATOM     15  C   UNL     1      46.455   1.254   8.015  0.00  0.00    +0.000 A 
ATOM     16  C   UNL     1      45.474   2.014   8.629  0.00  0.00    +0.000 A 
ENDBRANCH  10  11
ENDBRANCH   8  10
ENDBRANCH   5   8
ENDBRANCH   1   2
BRANCH   1  19
ATOM     17  C   UNL     1      48.307   4.923  16.833  0.00  0.00    +0.000 C 
ATOM     18  O   UNL     1      49.218   4.106  16.690  0.00  0.00    +0.000 OA
ATOM     19  N   UNL     1      47.241   4.931  15.939  0.00  0.00    +0.000 N 
ATOM     20  H   UNL     1      46.388   5.430  16.151  0.00  0.00    +0.000 HD
BRANCH  17  27
ATOM     21  C   UNL     1      48.860  10.828  16.699  0.00  0.00    +0.000 C 
ATOM     22  C   UNL     1      48.583   9.505  17.340  0.00  0.00    +0.000 A 
ATOM     23  S   UNL     1      48.071   9.468  19.013  0.00  0.00    +0.000 S 
ATOM     24  C   UNL     1      47.980   7.801  18.975  0.00  0.00    +0.000 A 
ATOM     25  N   UNL     1      47.648   6.847  19.896  0.00  0.00    +0.000 NA
ATOM     26  C   UNL     1      47.749   5.685  19.179  0.00  0.00    +0.000 C 
ATOM     27  C   UNL     1      48.179   5.928  17.848  0.00  0.00    +0.000 C 
ATOM     28  C   UNL     1      48.311   7.332  17.761  0.00  0.00    +0.000 A 
ATOM     29  C   UNL     1      48.689   8.228  16.763  0.00  0.00    +0.000 A 
ATOM     30  C   UNL     1      49.137   8.003  15.362  0.00  0.00    +0.000 C 
ENDBRANCH  17  27
ENDBRANCH   1  19
TORSDOF 6
ENDMDL
MODEL 7
REMARK VINA RESULT:    -7.408      2.500      3.723
REMARK INTER + INTRA:         -10.872
REMARK INTER:                  -9.884
REMARK INTRA:                  -0.988
REMARK UNBOUND:                -0.866
REMARK  Name = 
REMARK  8 active torsions:
REMARK  status: ('A' for Active; 'I' for Inactive)
REMARK    1  A    between atoms: C_1  and  C_2
REMARK    2  A    between atoms: C_7  and  C_8
REMARK    3  A    between atoms: N_10  and  C_11
REMARK    4  A    between atoms: C_11  and  C_12
REMARK    5  A    between atoms: C_15  and  N_16
REMARK    6  A    between atoms: N_16  and  C_17
REMARK    7  A    between atoms: C_17  and  C_18
REMARK    8  A    between atoms: C_27  and  C_28
REMARK                            x       y       z     vdW  Elec       q    Type
REMARK                         _______ _______ _______ _____ _____    ______ ____
ROOT
ATOM      1  C   UNL     1      47.455   8.734  13.591  0.00  0.00    +0.000 C 
ENDROOT
BRANCH   1   2
ATOM      2  C   UNL     1      46.511   7.848  12.823  0.00  0.00    +0.000 A 
ATOM      3  C   UNL     1      45.275   8.331  12.374  0.00  0.00    +0.000 A 
ATOM      4  C   UNL     1      44.463   7.555  11.533  0.00  0.00    +0.000 A 
ATOM      5  C   UNL     1      44.869   6.285  11.117  0.00  0.00    +0.000 A 
ATOM      6  C   UNL     1      46.055   5.769  11.653  0.00  0.00    +0.000 A 
ATOM      7  C   UNL     1      46.875   6.541  12.483  0.00  0.00    +0.000 A 
BRANCH   5   8
ATOM      8  N   UNL     1      44.139   5.469  10.253  0.00  0.00    +0.000 N 
ATOM      9  H   UNL     1      44.287   5.742   9.283  0.00  0.00    +0.000 HD
BRANCH   8  10
ATOM     10  C   UNL     1      44.197   4.021  10.421  0.00  0.00    +0.000 C 
BRANCH  10  11
ATOM     11  C   UNL     1      45.062   3.429   9.332  0.00  0.00    +0.000 A 
ATOM     12  C   UNL     1      45.290   2.054   9.241  0.00  0.00    +0.000 A 
ATOM     13  C   UNL     1      46.062   1.575   8.191  0.00  0.00    +0.000 A 
ATOM     14  N   UNL     1      46.612   2.360   7.240  0.00  0.00    +0.000 NA
ATOM     15  C   UNL     1      46.385   3.687   7.346  0.00  0.00    +0.000 A 
ATOM     16  C   UNL     1      45.629   4.258   8.355  0.00  0.00    +0.000 A 
ENDBRANCH  10  11
ENDBRANCH   8  10
ENDBRANCH   5   8
ENDBRANCH   1   2
BRANCH   1  19
ATOM     17  C   UNL     1      48.944   7.643  15.184  0.00  0.00    +0.000 C 
ATOM     18  O   UNL     1      49.792   7.576  14.294  0.00  0.00    +0.000 OA
ATOM     19  N   UNL     1      47.728   8.270  14.934  0.00  0.00    +0.000 N 
ATOM     20  H   UNL     1      46.942   8.152  15.559  0.00  0.00    +0.000 HD
BRANCH  17  27
ATOM     21  C   UNL     1      47.186   2.549  17.665  0.00  0.00    +0.000 C 
ATOM     22  C   UNL     1      47.831   3.899  17.649  0.00  0.00    +0.000 A 
ATOM     23  S   UNL     1      48.617   4.477  19.101  0.00  0.00    +0.000 S 
ATOM     24  C   UNL     1      49.036   5.901  18.337  0.00  0.00    +0.000 A 
ATOM     25  N   UNL     1      49.707   7.026  18.728  0.00  0.00    +0.000 NA
ATOM     26  C   UNL     1      49.725   7.782  17.586  0.00  0.00    +0.000 C 
ATOM     27  C   UNL     1      49.035   7.139  16.525  0.00  0.00    +0.000 C 
ATOM     28  C   UNL     1      48.607   5.906  17.065  0.00  0.00    +0.000 A 
ATOM     29  C   UNL     1      47.891   4.812  16.583  0.00  0.00    +0.000 A 
ATOM     30  C   UNL     1      47.267   4.558  15.256  0.00  0.00    +0.000 C 
ENDBRANCH  17  27
ENDBRANCH   1  19
TORSDOF 6
ENDMDL
MODEL 8
REMARK VINA RESULT:    -6.864      2.698      3.612
REMARK INTER + INTRA:         -10.138
REMARK INTER:                  -9.595
REMARK INTRA:                  -0.543
REMARK UNBOUND:                -0.866
REMARK  Name = 
REMARK  8 active torsions:
REMARK  status: ('A' for Active; 'I' for Inactive)
REMARK    1  A    between atoms: C_1  and  C_2
REMARK    2  A    between atoms: C_7  and  C_8
REMARK    3  A    between atoms: N_10  and  C_11
REMARK    4  A    between atoms: C_11  and  C_12
REMARK    5  A    between atoms: C_15  and  N_16
REMARK    6  A    between atoms: N_16  and  C_17
REMARK    7  A    between atoms: C_17  and  C_18
REMARK    8  A    between atoms: C_27  and  C_28
REMARK                            x       y       z     vdW  Elec       q    Type
REMARK                         _______ _______ _______ _____ _____    ______ ____
ROOT
ATOM      1  C   UNL     1      48.083   8.423  14.298  0.00  0.00    +0.000 C 
ENDROOT
BRANCH   1   2
ATOM      2  C   UNL     1      47.201   7.853  13.221  0.00  0.00    +0.000 A 
ATOM      3  C   UNL     1      47.355   6.528  12.790  0.00  0.00    +0.000 A 
ATOM      4  C   UNL     1      46.439   5.953  11.895  0.00  0.00    +0.000 A 
ATOM      5  C   UNL     1      45.349   6.683  11.417  0.00  0.00    +0.000 A 
ATOM      6  C   UNL     1      45.261   8.035  11.770  0.00  0.00    +0.000 A 
ATOM      7  C   UNL     1      46.163   8.612  12.670  0.00  0.00    +0.000 A 
BRANCH   5   8
ATOM      8  N   UNL     1      44.375   6.172  10.559  0.00  0.00    +0.000 N 
ATOM      9  H   UNL     1      44.588   6.402   9.590  0.00  0.00    +0.000 HD
BRANCH   8  10
ATOM     10  C   UNL     1      43.953   4.784  10.705  0.00  0.00    +0.000 C 
BRANCH  10  11
ATOM     11  C   UNL     1      44.708   3.929   9.713  0.00  0.00    +0.000 A 
ATOM     12  C   UNL     1      44.667   2.534   9.764  0.00  0.00    +0.000 A 
ATOM     13  C   UNL     1      45.351   1.812   8.796  0.00  0.00    +0.000 A 
ATOM     14  N   UNL     1      46.061   2.375   7.795  0.00  0.00    +0.000 NA
ATOM     15  C   UNL     1      46.094   3.725   7.763  0.00  0.00    +0.000 A 
ATOM     16  C   UNL     1      45.443   4.530   8.683  0.00  0.00    +0.000 A 
ENDBRANCH  10  11
ENDBRANCH   8  10
ENDBRANCH   5   8
ENDBRANCH   1   2
BRANCH   1  19
ATOM     17  C   UNL     1      49.044   6.879  15.922  0.00  0.00    +0.000 C 
ATOM     18  O   UNL     1      50.054   6.822  15.219  0.00  0.00    +0.000 OA
ATOM     19  N   UNL     1      47.996   7.717  15.558  0.00  0.00    +0.000 N 
ATOM     20  H   UNL     1      47.084   7.625  15.984  0.00  0.00    +0.000 HD
BRANCH  17  27
ATOM     21  C   UNL     1      47.378   8.663  21.329  0.00  0.00    +0.000 C 
ATOM     22  C   UNL     1      47.741   7.655  20.284  0.00  0.00    +0.000 A 
ATOM     23  S   UNL     1      47.641   5.954  20.681  0.00  0.00    +0.000 S 
ATOM     24  C   UNL     1      48.155   5.541  19.147  0.00  0.00    +0.000 A 
ATOM     25  N   UNL     1      48.393   4.353  18.514  0.00  0.00    +0.000 NA
ATOM     26  C   UNL     1      48.755   4.748  17.254  0.00  0.00    +0.000 C 
ATOM     27  C   UNL     1      48.777   6.162  17.136  0.00  0.00    +0.000 C 
ATOM     28  C   UNL     1      48.370   6.637  18.403  0.00  0.00    +0.000 A 
ATOM     29  C   UNL     1      48.179   7.895  18.971  0.00  0.00    +0.000 A 
ATOM     30  C   UNL     1      48.372   9.261  18.414  0.00  0.00    +0.000 C 
ENDBRANCH  17  27
ENDBRANCH   1  19
TORSDOF 6
ENDMDL
MODEL 9
REMARK VINA RESULT:    -6.772      4.099      9.245
REMARK INTER + INTRA:         -10.014
REMARK INTER:                  -9.115
REMARK INTRA:                  -0.899
REMARK UNBOUND:                -0.866
REMARK  Name = 
REMARK  8 active torsions:
REMARK  status: ('A' for Active; 'I' for Inactive)
REMARK    1  A    between atoms: C_1  and  C_2
REMARK    2  A    between atoms: C_7  and  C_8
REMARK    3  A    between atoms: N_10  and  C_11
REMARK    4  A    between atoms: C_11  and  C_12
REMARK    5  A    between atoms: C_15  and  N_16
REMARK    6  A    between atoms: N_16  and  C_17
REMARK    7  A    between atoms: C_17  and  C_18
REMARK    8  A    between atoms: C_27  and  C_28
REMARK                            x       y       z     vdW  Elec       q    Type
REMARK                         _______ _______ _______ _____ _____    ______ ____
ROOT
ATOM      1  C   UNL     1      48.860   7.569  15.476  0.00  0.00    +0.000 C 
ENDROOT
BRANCH   1   2
ATOM      2  C   UNL     1      49.182   6.326  16.260  0.00  0.00    +0.000 A 
ATOM      3  C   UNL     1      48.230   5.311  16.424  0.00  0.00    +0.000 A 
ATOM      4  C   UNL     1      48.576   4.091  17.025  0.00  0.00    +0.000 A 
ATOM      5  C   UNL     1      49.879   3.856  17.470  0.00  0.00    +0.000 A 
ATOM      6  C   UNL     1      50.796   4.912  17.399  0.00  0.00    +0.000 A 
ATOM      7  C   UNL     1      50.461   6.127  16.790  0.00  0.00    +0.000 A 
BRANCH   5   8
ATOM      8  N   UNL     1      50.312   2.659  18.042  0.00  0.00    +0.000 N 
ATOM      9  H   UNL     1      49.550   2.194  18.532  0.00  0.00    +0.000 HD
BRANCH   8  10
ATOM     10  C   UNL     1      51.088   1.724  17.235  0.00  0.00    +0.000 C 
BRANCH  10  11
ATOM     11  C   UNL     1      52.441   1.521  17.876  0.00  0.00    +0.000 A 
ATOM     12  C   UNL     1      53.075   2.538  18.593  0.00  0.00    +0.000 A 
ATOM     13  C   UNL     1      54.299   2.268  19.191  0.00  0.00    +0.000 A 
ATOM     14  N   UNL     1      54.924   1.073  19.125  0.00  0.00    +0.000 NA
ATOM     15  C   UNL     1      54.299   0.102  18.425  0.00  0.00    +0.000 A 
ATOM     16  C   UNL     1      53.078   0.275  17.796  0.00  0.00    +0.000 A 
ENDBRANCH  10  11
ENDBRANCH   8  10
ENDBRANCH   5   8
ENDBRANCH   1   2
BRANCH   1  19
ATOM     17  C   UNL     1      47.763   6.890  13.407  0.00  0.00    +0.000 C 
ATOM     18  O   UNL     1      48.837   6.415  13.034  0.00  0.00    +0.000 OA
ATOM     19  N   UNL     1      47.662   7.458  14.672  0.00  0.00    +0.000 N 
ATOM     20  H   UNL     1      46.874   8.040  14.920  0.00  0.00    +0.000 HD
BRANCH  17  27
ATOM     21  C   UNL     1      43.631   2.794  12.247  0.00  0.00    +0.000 C 
ATOM     22  C   UNL     1      44.232   4.164  12.212  0.00  0.00    +0.000 A 
ATOM     23  S   UNL     1      43.321   5.466  11.479  0.00  0.00    +0.000 S 
ATOM     24  C   UNL     1      44.553   6.545  11.809  0.00  0.00    +0.000 A 
ATOM     25  N   UNL     1      44.732   7.880  11.576  0.00  0.00    +0.000 NA
ATOM     26  C   UNL     1      45.953   8.126  12.145  0.00  0.00    +0.000 C 
ATOM     27  C   UNL     1      46.527   6.943  12.681  0.00  0.00    +0.000 C 
ATOM     28  C   UNL     1      45.567   5.935  12.442  0.00  0.00    +0.000 A 
ATOM     29  C   UNL     1      45.485   4.568  12.701  0.00  0.00    +0.000 A 
ATOM     30  C   UNL     1      46.452   3.632  13.337  0.00  0.00    +0.000 C 
ENDBRANCH  17  27
ENDBRANCH   1  19
TORSDOF 6
ENDMDL
