MODEL 1
REMARK VINA RESULT:    -8.345      0.000      0.000
REMARK INTER + INTRA:         -12.287
REMARK INTER:                 -11.272
REMARK INTRA:                  -1.015
REMARK UNBOUND:                -1.015
REMARK  Name = 
REMARK  6 active torsions:
REMARK  status: ('A' for Active; 'I' for Inactive)
REMARK    1  A    between atoms: C_2  and  C_4
REMARK    2  A    between atoms: C_8  and  O_9
REMARK    3  A    between atoms: O_9  and  C_10
REMARK    4  A    between atoms: C_10  and  C_11
REMARK    5  A    between atoms: C_11  and  C_12
REMARK    6  A    between atoms: C_16  and  C_17
REMARK                            x       y       z     vdW  Elec       q    Type
REMARK                         _______ _______ _______ _____ _____    ______ ____
ROOT
ATOM      1  C   UNL     1      43.239   4.304  11.046  0.00  0.00    +0.000 C 
ENDROOT
BRANCH   1   2
ATOM      2  O   UNL     1      43.623   3.050  10.477  0.00  0.00    +0.000 OA
BRANCH   2   7
ATOM      3  C   UNL     1      46.245   2.246   7.980  0.00  0.00    +0.000 A 
ATOM      4  C   UNL     1      46.414   3.536   7.495  0.00  0.00    +0.000 A 
ATOM      5  N   UNL     1      45.697   4.598   7.933  0.00  0.00    +0.000 NA
ATOM      6  C   UNL     1      44.792   4.355   8.914  0.00  0.00    +0.000 A 
ATOM      7  C   UNL     1      44.565   3.105   9.485  0.00  0.00    +0.000 A 
ATOM      8  C   UNL     1      45.313   2.033   9.001  0.00  0.00    +0.000 A 
BRANCH   3  10
ATOM      9  N   UNL     1      46.660  -0.127   7.672  0.00  0.00    +0.000 N 
ATOM     10  C   UNL     1      47.067   1.156   7.414  0.00  0.00    +0.000 C 
ATOM     11  O   UNL     1      48.043   1.386   6.717  0.00  0.00    +0.000 OA
ATOM     12  H   UNL     1      47.168  -0.860   7.191  0.00  0.00    +0.000 HD
ATOM     13  H   UNL     1      45.736  -0.348   8.012  0.00  0.00    +0.000 HD
ENDBRANCH   3  10
ENDBRANCH   2   7
ENDBRANCH   1   2
BRANCH   1  14
ATOM     14  C   UNL     1      43.463   4.280  12.558  0.00  0.00    +0.000 C 
BRANCH  14  15
ATOM     15  C   UNL     1      44.741   5.005  12.902  0.00  0.00    +0.000 A 
ATOM     16  C   UNL     1      45.879   4.295  13.297  0.00  0.00    +0.000 A 
ATOM     17  C   UNL     1      47.083   4.964  13.501  0.00  0.00    +0.000 A 
ATOM     18  C   UNL     1      47.163   6.342  13.292  0.00  0.00    +0.000 A 
ATOM     19  C   UNL     1      46.049   7.085  12.862  0.00  0.00    +0.000 A 
ATOM     20  C   UNL     1      44.834   6.393  12.705  0.00  0.00    +0.000 A 
BRANCH  19  21
ATOM     21  C   UNL     1      46.170   8.512  12.481  0.00  0.00    +0.000 A 
ATOM     22  C   UNL     1      47.436   9.085  12.245  0.00  0.00    +0.000 A 
ATOM     23  C   UNL     1      47.572  10.399  11.791  0.00  0.00    +0.000 A 
ATOM     24  C   UNL     1      46.442  11.173  11.554  0.00  0.00    +0.000 A 
ATOM     25  C   UNL     1      45.179  10.640  11.793  0.00  0.00    +0.000 A 
ATOM     26  C   UNL     1      45.046   9.328  12.261  0.00  0.00    +0.000 A 
ENDBRANCH  19  21
ENDBRANCH  14  15
ENDBRANCH   1  14
TORSDOF 6
ENDMDL
MODEL 2
REMARK VINA RESULT:    -8.170      3.769      7.358
REMARK INTER + INTRA:         -12.050
REMARK INTER:                 -11.236
REMARK INTRA:                  -0.814
REMARK UNBOUND:                -1.015
REMARK  Name = 
REMARK  6 active torsions:
REMARK  status: ('A' for Active; 'I' for Inactive)
REMARK    1  A    between atoms: C_2  and  C_4
REMARK    2  A    between atoms: C_8  and  O_9
REMARK    3  A    between atoms: O_9  and  C_10
REMARK    4  A    between atoms: C_10  and  C_11
REMARK    5  A    between atoms: C_11  and  C_12
REMARK    6  A    between atoms: C_16  and  C_17
REMARK                            x       y       z     vdW  Elec       q    Type
REMARK                         _______ _______ _______ _____ _____    ______ ____
ROOT
ATOM      1  C   UNL     1      45.308   6.763  12.707  0.00  0.00    +0.000 C 
ENDROOT
BRANCH   1   2
ATOM      2  O   UNL     1      46.469   5.930  12.657  0.00  0.00    +0.000 OA
BRANCH   2   7
ATOM      3  C   UNL     1      47.656   4.530  15.880  0.00  0.00    +0.000 A 
ATOM      4  C   UNL     1      48.504   5.577  16.213  0.00  0.00    +0.000 A 
ATOM      5  N   UNL     1      48.701   6.659  15.424  0.00  0.00    +0.000 NA
ATOM      6  C   UNL     1      47.998   6.698  14.264  0.00  0.00    +0.000 A 
ATOM      7  C   UNL     1      47.103   5.714  13.851  0.00  0.00    +0.000 A 
ATOM      8  C   UNL     1      46.935   4.609  14.684  0.00  0.00    +0.000 A 
BRANCH   3  10
ATOM      9  N   UNL     1      48.671   2.671  17.068  0.00  0.00    +0.000 N 
ATOM     10  C   UNL     1      47.532   3.386  16.807  0.00  0.00    +0.000 C 
ATOM     11  O   UNL     1      46.471   3.112  17.348  0.00  0.00    +0.000 OA
ATOM     12  H   UNL     1      48.596   1.960  17.786  0.00  0.00    +0.000 HD
ATOM     13  H   UNL     1      49.594   3.018  16.853  0.00  0.00    +0.000 HD
ENDBRANCH   3  10
ENDBRANCH   2   7
ENDBRANCH   1   2
BRANCH   1  14
ATOM     14  C   UNL     1      44.466   6.560  11.447  0.00  0.00    +0.000 C 
BRANCH  14  15
ATOM     15  C   UNL     1      44.392   5.092  11.107  0.00  0.00    +0.000 A 
ATOM     16  C   UNL     1      43.473   4.257  11.750  0.00  0.00    +0.000 A 
ATOM     17  C   UNL     1      43.335   2.932  11.348  0.00  0.00    +0.000 A 
ATOM     18  C   UNL     1      44.097   2.437  10.288  0.00  0.00    +0.000 A 
ATOM     19  C   UNL     1      45.007   3.255   9.595  0.00  0.00    +0.000 A 
ATOM     20  C   UNL     1      45.159   4.578  10.049  0.00  0.00    +0.000 A 
BRANCH  19  21
ATOM     21  C   UNL     1      45.694   2.783   8.370  0.00  0.00    +0.000 A 
ATOM     22  C   UNL     1      45.925   3.664   7.294  0.00  0.00    +0.000 A 
ATOM     23  C   UNL     1      46.655   3.273   6.171  0.00  0.00    +0.000 A 
ATOM     24  C   UNL     1      47.181   1.989   6.096  0.00  0.00    +0.000 A 
ATOM     25  C   UNL     1      46.958   1.091   7.135  0.00  0.00    +0.000 A 
ATOM     26  C   UNL     1      46.213   1.482   8.254  0.00  0.00    +0.000 A 
ENDBRANCH  19  21
ENDBRANCH  14  15
ENDBRANCH   1  14
TORSDOF 6
ENDMDL
MODEL 3
REMARK VINA RESULT:    -8.095      2.087      4.018
REMARK INTER + INTRA:         -11.950
REMARK INTER:                 -11.001
REMARK INTRA:                  -0.948
REMARK UNBOUND:                -1.015
REMARK  Name = 
REMARK  6 active torsions:
REMARK  status: ('A' for Active; 'I' for Inactive)
REMARK    1  A    between atoms: C_2  and  C_4
REMARK    2  A    between atoms: C_8  and  O_9
REMARK    3  A    between atoms: O_9  and  C_10
REMARK    4  A    between atoms: C_10  and  C_11
REMARK    5  A    between atoms: C_11  and  C_12
REMARK    6  A    between atoms: C_16  and  C_17
REMARK                            x       y       z     vdW  Elec       q    Type
REMARK                         _______ _______ _______ _____ _____    ______ ____
ROOT
ATOM      1  C   UNL     1      43.549   4.166  11.154  0.00  0.00    +0.000 C 
ENDROOT
BRANCH   1   2
ATOM      2  O   UNL     1      43.616   3.055  10.258  0.00  0.00    +0.000 OA
BRANCH   2   7
ATOM      3  C   UNL     1      46.330   2.218   7.872  0.00  0.00    +0.000 A 
ATOM      4  C   UNL     1      46.586   3.516   7.449  0.00  0.00    +0.000 A 
ATOM      5  N   UNL     1      45.896   4.594   7.891  0.00  0.00    +0.000 NA
ATOM      6  C   UNL     1      44.928   4.359   8.812  0.00  0.00    +0.000 A 
ATOM      7  C   UNL     1      44.613   3.101   9.320  0.00  0.00    +0.000 A 
ATOM      8  C   UNL     1      45.335   2.013   8.833  0.00  0.00    +0.000 A 
BRANCH   3  10
ATOM      9  N   UNL     1      46.773  -0.161   7.670  0.00  0.00    +0.000 N 
ATOM     10  C   UNL     1      47.131   1.111   7.308  0.00  0.00    +0.000 C 
ATOM     11  O   UNL     1      48.045   1.317   6.525  0.00  0.00    +0.000 OA
ATOM     12  H   UNL     1      47.258  -0.912   7.194  0.00  0.00    +0.000 HD
ATOM     13  H   UNL     1      45.883  -0.378   8.094  0.00  0.00    +0.000 HD
ENDBRANCH   3  10
ENDBRANCH   2   7
ENDBRANCH   1   2
BRANCH   1  14
ATOM     14  C   UNL     1      44.067   3.756  12.533  0.00  0.00    +0.000 C 
BRANCH  14  15
ATOM     15  C   UNL     1      45.313   4.539  12.869  0.00  0.00    +0.000 A 
ATOM     16  C   UNL     1      45.686   5.647  12.104  0.00  0.00    +0.000 A 
ATOM     17  C   UNL     1      46.771   6.429  12.491  0.00  0.00    +0.000 A 
ATOM     18  C   UNL     1      47.477   6.120  13.655  0.00  0.00    +0.000 A 
ATOM     19  C   UNL     1      47.111   5.034  14.469  0.00  0.00    +0.000 A 
ATOM     20  C   UNL     1      46.038   4.235  14.033  0.00  0.00    +0.000 A 
BRANCH  19  21
ATOM     21  C   UNL     1      47.751   4.802  15.786  0.00  0.00    +0.000 A 
ATOM     22  C   UNL     1      48.696   5.716  16.293  0.00  0.00    +0.000 A 
ATOM     23  C   UNL     1      49.240   5.573  17.571  0.00  0.00    +0.000 A 
ATOM     24  C   UNL     1      48.846   4.514  18.379  0.00  0.00    +0.000 A 
ATOM     25  C   UNL     1      47.926   3.586  17.901  0.00  0.00    +0.000 A 
ATOM     26  C   UNL     1      47.393   3.724  16.615  0.00  0.00    +0.000 A 
ENDBRANCH  19  21
ENDBRANCH  14  15
ENDBRANCH   1  14
TORSDOF 6
ENDMDL
MODEL 4
REMARK VINA RESULT:    -7.800      1.631      2.346
REMARK INTER + INTRA:         -11.551
REMARK INTER:                 -10.590
REMARK INTRA:                  -0.960
REMARK UNBOUND:                -1.015
REMARK  Name = 
REMARK  6 active torsions:
REMARK  status: ('A' for Active; 'I' for Inactive)
REMARK    1  A    between atoms: C_2  and  C_4
REMARK    2  A    between atoms: C_8  and  O_9
REMARK    3  A    between atoms: O_9  and  C_10
REMARK    4  A    between atoms: C_10  and  C_11
REMARK    5  A    between atoms: C_11  and  C_12
REMARK    6  A    between atoms: C_16  and  C_17
REMARK                            x       y       z     vdW  Elec       q    Type
REMARK                         _______ _______ _______ _____ _____    ______ ____
ROOT
ATOM      1  C   UNL     1      43.485   4.370  10.761  0.00  0.00    +0.000 C 
ENDROOT
BRANCH   1   2
ATOM      2  O   UNL     1      44.000   4.638   9.456  0.00  0.00    +0.000 OA
BRANCH   2   7
ATOM      3  C   UNL     1      46.351   2.683   7.356  0.00  0.00    +0.000 A 
ATOM      4  C   UNL     1      46.157   1.460   7.984  0.00  0.00    +0.000 A 
ATOM      5  N   UNL     1      45.333   1.287   9.045  0.00  0.00    +0.000 NA
ATOM      6  C   UNL     1      44.662   2.385   9.475  0.00  0.00    +0.000 A 
ATOM      7  C   UNL     1      44.767   3.649   8.899  0.00  0.00    +0.000 A 
ATOM      8  C   UNL     1      45.633   3.791   7.816  0.00  0.00    +0.000 A 
BRANCH   3  10
ATOM      9  N   UNL     1      48.608   2.488   6.479  0.00  0.00    +0.000 N 
ATOM     10  C   UNL     1      47.291   2.762   6.218  0.00  0.00    +0.000 C 
ATOM     11  O   UNL     1      46.907   3.021   5.088  0.00  0.00    +0.000 OA
ATOM     12  H   UNL     1      49.220   2.439   5.674  0.00  0.00    +0.000 HD
ATOM     13  H   UNL     1      48.911   2.024   7.323  0.00  0.00    +0.000 HD
ENDBRANCH   3  10
ENDBRANCH   2   7
ENDBRANCH   1   2
BRANCH   1  14
ATOM     14  C   UNL     1      43.527   5.641  11.610  0.00  0.00    +0.000 C 
BRANCH  14  15
ATOM     15  C   UNL     1      44.856   5.745  12.317  0.00  0.00    +0.000 A 
ATOM     16  C   UNL     1      45.282   4.735  13.185  0.00  0.00    +0.000 A 
ATOM     17  C   UNL     1      46.556   4.787  13.743  0.00  0.00    +0.000 A 
ATOM     18  C   UNL     1      47.420   5.835  13.421  0.00  0.00    +0.000 A 
ATOM     19  C   UNL     1      47.041   6.850  12.526  0.00  0.00    +0.000 A 
ATOM     20  C   UNL     1      45.733   6.798  12.010  0.00  0.00    +0.000 A 
BRANCH  19  21
ATOM     21  C   UNL     1      48.008   7.869  12.055  0.00  0.00    +0.000 A 
ATOM     22  C   UNL     1      47.635   9.226  11.975  0.00  0.00    +0.000 A 
ATOM     23  C   UNL     1      48.554  10.218  11.629  0.00  0.00    +0.000 A 
ATOM     24  C   UNL     1      49.875   9.880  11.360  0.00  0.00    +0.000 A 
ATOM     25  C   UNL     1      50.270   8.547  11.416  0.00  0.00    +0.000 A 
ATOM     26  C   UNL     1      49.343   7.553  11.749  0.00  0.00    +0.000 A 
ENDBRANCH  19  21
ENDBRANCH  14  15
ENDBRANCH   1  14
TORSDOF 6
ENDMDL
MODEL 5
REMARK VINA RESULT:    -7.403      4.732      7.811
REMARK INTER + INTRA:         -11.014
REMARK INTER:                 -10.320
REMARK INTRA:                  -0.695
REMARK UNBOUND:                -1.015
REMARK  Name = 
REMARK  6 active torsions:
REMARK  status: ('A' for Active; 'I' for Inactive)
REMARK    1  A    between atoms: C_2  and  C_4
REMARK    2  A    between atoms: C_8  and  O_9
REMARK    3  A    between atoms: O_9  and  C_10
REMARK    4  A    between atoms: C_10  and  C_11
REMARK    5  A    between atoms: C_11  and  C_12
REMARK    6  A    between atoms: C_16  and  C_17
REMARK                            x       y       z     vdW  Elec       q    Type
REMARK                         _______ _______ _______ _____ _____    ______ ____
ROOT
ATOM      1  C   UNL     1      46.966   4.392  14.086  0.00  0.00    +0.000 C 
ENDROOT
BRANCH   1   2
ATOM      2  O   UNL     1      46.539   3.818  15.323  0.00  0.00    +0.000 OA
BRANCH   2   7
ATOM      3  C   UNL     1      49.521   2.997  17.372  0.00  0.00    +0.000 A 
ATOM      4  C   UNL     1      49.194   3.788  18.465  0.00  0.00    +0.000 A 
ATOM      5  N   UNL     1      48.085   4.564  18.521  0.00  0.00    +0.000 NA
ATOM      6  C   UNL     1      47.263   4.523  17.442  0.00  0.00    +0.000 A 
ATOM      7  C   UNL     1      47.487   3.745  16.309  0.00  0.00    +0.000 A 
ATOM      8  C   UNL     1      48.644   2.968  16.282  0.00  0.00    +0.000 A 
BRANCH   3  10
ATOM      9  N   UNL     1      51.781   2.677  18.201  0.00  0.00    +0.000 N 
ATOM     10  C   UNL     1      50.768   2.205  17.409  0.00  0.00    +0.000 C 
ATOM     11  O   UNL     1      50.878   1.156  16.793  0.00  0.00    +0.000 OA
ATOM     12  H   UNL     1      52.586   2.071  18.302  0.00  0.00    +0.000 HD
ATOM     13  H   UNL     1      51.636   3.380  18.911  0.00  0.00    +0.000 HD
ENDBRANCH   3  10
ENDBRANCH   2   7
ENDBRANCH   1   2
BRANCH   1  14
ATOM     14  C   UNL     1      46.063   5.571  13.720  0.00  0.00    +0.000 C 
BRANCH  14  15
ATOM     15  C   UNL     1      45.114   5.171  12.617  0.00  0.00    +0.000 A 
ATOM     16  C   UNL     1      43.804   5.657  12.594  0.00  0.00    +0.000 A 
ATOM     17  C   UNL     1      42.973   5.373  11.513  0.00  0.00    +0.000 A 
ATOM     18  C   UNL     1      43.453   4.620  10.440  0.00  0.00    +0.000 A 
ATOM     19  C   UNL     1      44.775   4.143  10.411  0.00  0.00    +0.000 A 
ATOM     20  C   UNL     1      45.580   4.406  11.535  0.00  0.00    +0.000 A 
BRANCH  19  21
ATOM     21  C   UNL     1      45.336   3.488   9.206  0.00  0.00    +0.000 A 
ATOM     22  C   UNL     1      45.824   4.260   8.134  0.00  0.00    +0.000 A 
ATOM     23  C   UNL     1      46.446   3.671   7.031  0.00  0.00    +0.000 A 
ATOM     24  C   UNL     1      46.602   2.291   6.975  0.00  0.00    +0.000 A 
ATOM     25  C   UNL     1      46.116   1.500   8.012  0.00  0.00    +0.000 A 
ATOM     26  C   UNL     1      45.481   2.092   9.109  0.00  0.00    +0.000 A 
ENDBRANCH  19  21
ENDBRANCH  14  15
ENDBRANCH   1  14
TORSDOF 6
ENDMDL
MODEL 6
REMARK VINA RESULT:    -7.381      2.352      4.499
REMARK INTER + INTRA:         -10.985
REMARK INTER:                 -10.215
REMARK INTRA:                  -0.770
REMARK UNBOUND:                -1.015
REMARK  Name = 
REMARK  6 active torsions:
REMARK  status: ('A' for Active; 'I' for Inactive)
REMARK    1  A    between atoms: C_2  and  C_4
REMARK    2  A    between atoms: C_8  and  O_9
REMARK    3  A    between atoms: O_9  and  C_10
REMARK    4  A    between atoms: C_10  and  C_11
REMARK    5  A    between atoms: C_11  and  C_12
REMARK    6  A    between atoms: C_16  and  C_17
REMARK                            x       y       z     vdW  Elec       q    Type
REMARK                         _______ _______ _______ _____ _____    ______ ____
ROOT
ATOM      1  C   UNL     1      45.084   5.307  10.050  0.00  0.00    +0.000 C 
ENDROOT
BRANCH   1   2
ATOM      2  O   UNL     1      44.345   4.382   9.250  0.00  0.00    +0.000 OA
BRANCH   2   7
ATOM      3  C   UNL     1      46.622   2.322   7.169  0.00  0.00    +0.000 A 
ATOM      4  C   UNL     1      46.351   1.106   7.780  0.00  0.00    +0.000 A 
ATOM      5  N   UNL     1      45.502   0.968   8.826  0.00  0.00    +0.000 NA
ATOM      6  C   UNL     1      44.884   2.096   9.257  0.00  0.00    +0.000 A 
ATOM      7  C   UNL     1      45.066   3.358   8.696  0.00  0.00    +0.000 A 
ATOM      8  C   UNL     1      45.956   3.464   7.628  0.00  0.00    +0.000 A 
BRANCH   3  10
ATOM      9  N   UNL     1      47.414   3.354   5.117  0.00  0.00    +0.000 N 
ATOM     10  C   UNL     1      47.583   2.361   6.047  0.00  0.00    +0.000 C 
ATOM     11  O   UNL     1      48.510   1.570   5.970  0.00  0.00    +0.000 OA
ATOM     12  H   UNL     1      48.140   3.435   4.416  0.00  0.00    +0.000 HD
ATOM     13  H   UNL     1      46.836   4.164   5.284  0.00  0.00    +0.000 HD
ENDBRANCH   3  10
ENDBRANCH   2   7
ENDBRANCH   1   2
BRANCH   1  14
ATOM     14  C   UNL     1      44.942   4.947  11.529  0.00  0.00    +0.000 C 
BRANCH  14  15
ATOM     15  C   UNL     1      46.129   5.467  12.303  0.00  0.00    +0.000 A 
ATOM     16  C   UNL     1      46.813   6.608  11.876  0.00  0.00    +0.000 A 
ATOM     17  C   UNL     1      47.833   7.143  12.658  0.00  0.00    +0.000 A 
ATOM     18  C   UNL     1      48.161   6.555  13.881  0.00  0.00    +0.000 A 
ATOM     19  C   UNL     1      47.473   5.427  14.360  0.00  0.00    +0.000 A 
ATOM     20  C   UNL     1      46.476   4.879  13.531  0.00  0.00    +0.000 A 
BRANCH  19  21
ATOM     21  C   UNL     1      47.704   4.900  15.726  0.00  0.00    +0.000 A 
ATOM     22  C   UNL     1      47.079   3.711  16.150  0.00  0.00    +0.000 A 
ATOM     23  C   UNL     1      47.355   3.141  17.394  0.00  0.00    +0.000 A 
ATOM     24  C   UNL     1      48.272   3.744  18.246  0.00  0.00    +0.000 A 
ATOM     25  C   UNL     1      48.895   4.928  17.862  0.00  0.00    +0.000 A 
ATOM     26  C   UNL     1      48.605   5.504  16.620  0.00  0.00    +0.000 A 
ENDBRANCH  19  21
ENDBRANCH  14  15
ENDBRANCH   1  14
TORSDOF 6
ENDMDL
MODEL 7
REMARK VINA RESULT:    -7.168      3.656      7.465
REMARK INTER + INTRA:         -10.697
REMARK INTER:                  -9.897
REMARK INTRA:                  -0.800
REMARK UNBOUND:                -1.015
REMARK  Name = 
REMARK  6 active torsions:
REMARK  status: ('A' for Active; 'I' for Inactive)
REMARK    1  A    between atoms: C_2  and  C_4
REMARK    2  A    between atoms: C_8  and  O_9
REMARK    3  A    between atoms: O_9  and  C_10
REMARK    4  A    between atoms: C_10  and  C_11
REMARK    5  A    between atoms: C_11  and  C_12
REMARK    6  A    between atoms: C_16  and  C_17
REMARK                            x       y       z     vdW  Elec       q    Type
REMARK                         _______ _______ _______ _____ _____    ______ ____
ROOT
ATOM      1  C   UNL     1      45.348   6.867  12.469  0.00  0.00    +0.000 C 
ENDROOT
BRANCH   1   2
ATOM      2  O   UNL     1      46.581   7.152  11.806  0.00  0.00    +0.000 OA
BRANCH   2   7
ATOM      3  C   UNL     1      48.998   6.969  14.614  0.00  0.00    +0.000 A 
ATOM      4  C   UNL     1      50.022   7.677  13.999  0.00  0.00    +0.000 A 
ATOM      5  N   UNL     1      49.942   8.160  12.736  0.00  0.00    +0.000 NA
ATOM      6  C   UNL     1      48.777   7.940  12.077  0.00  0.00    +0.000 A 
ATOM      7  C   UNL     1      47.682   7.265  12.613  0.00  0.00    +0.000 A 
ATOM      8  C   UNL     1      47.805   6.773  13.911  0.00  0.00    +0.000 A 
BRANCH   3  10
ATOM      9  N   UNL     1      49.400   7.407  16.969  0.00  0.00    +0.000 N 
ATOM     10  C   UNL     1      49.200   6.469  15.990  0.00  0.00    +0.000 C 
ATOM     11  O   UNL     1      49.154   5.277  16.252  0.00  0.00    +0.000 OA
ATOM     12  H   UNL     1      49.429   7.059  17.920  0.00  0.00    +0.000 HD
ATOM     13  H   UNL     1      49.187   8.385  16.839  0.00  0.00    +0.000 HD
ENDBRANCH   3  10
ENDBRANCH   2   7
ENDBRANCH   1   2
BRANCH   1  14
ATOM     14  C   UNL     1      44.263   6.551  11.438  0.00  0.00    +0.000 C 
BRANCH  14  15
ATOM     15  C   UNL     1      44.269   5.077  11.118  0.00  0.00    +0.000 A 
ATOM     16  C   UNL     1      43.397   4.202  11.774  0.00  0.00    +0.000 A 
ATOM     17  C   UNL     1      43.330   2.866  11.391  0.00  0.00    +0.000 A 
ATOM     18  C   UNL     1      44.118   2.399  10.337  0.00  0.00    +0.000 A 
ATOM     19  C   UNL     1      44.981   3.255   9.630  0.00  0.00    +0.000 A 
ATOM     20  C   UNL     1      45.062   4.591  10.066  0.00  0.00    +0.000 A 
BRANCH  19  21
ATOM     21  C   UNL     1      45.692   2.804   8.411  0.00  0.00    +0.000 A 
ATOM     22  C   UNL     1      45.962   3.709   7.364  0.00  0.00    +0.000 A 
ATOM     23  C   UNL     1      46.714   3.335   6.249  0.00  0.00    +0.000 A 
ATOM     24  C   UNL     1      47.224   2.046   6.155  0.00  0.00    +0.000 A 
ATOM     25  C   UNL     1      46.962   1.125   7.165  0.00  0.00    +0.000 A 
ATOM     26  C   UNL     1      46.196   1.499   8.275  0.00  0.00    +0.000 A 
ENDBRANCH  19  21
ENDBRANCH  14  15
ENDBRANCH   1  14
TORSDOF 6
ENDMDL
MODEL 8
REMARK VINA RESULT:    -7.082      3.605      7.421
REMARK INTER + INTRA:         -10.581
REMARK INTER:                  -9.964
REMARK INTRA:                  -0.617
REMARK UNBOUND:                -1.015
REMARK  Name = 
REMARK  6 active torsions:
REMARK  status: ('A' for Active; 'I' for Inactive)
REMARK    1  A    between atoms: C_2  and  C_4
REMARK    2  A    between atoms: C_8  and  O_9
REMARK    3  A    between atoms: O_9  and  C_10
REMARK    4  A    between atoms: C_10  and  C_11
REMARK    5  A    between atoms: C_11  and  C_12
REMARK    6  A    between atoms: C_16  and  C_17
REMARK                            x       y       z     vdW  Elec       q    Type
REMARK                         _______ _______ _______ _____ _____    ______ ____
ROOT
ATOM      1  C   UNL     1      45.220   7.099  12.115  0.00  0.00    +0.000 C 
ENDROOT
BRANCH   1   2
ATOM      2  O   UNL     1      46.521   6.791  11.610  0.00  0.00    +0.000 OA
BRANCH   2   7
ATOM      3  C   UNL     1      49.649   7.828  13.312  0.00  0.00    +0.000 A 
ATOM      4  C   UNL     1      49.504   7.020  14.432  0.00  0.00    +0.000 A 
ATOM      5  N   UNL     1      48.439   6.209  14.635  0.00  0.00    +0.000 NA
ATOM      6  C   UNL     1      47.495   6.194  13.661  0.00  0.00    +0.000 A 
ATOM      7  C   UNL     1      47.558   6.946  12.490  0.00  0.00    +0.000 A 
ATOM      8  C   UNL     1      48.663   7.778  12.321  0.00  0.00    +0.000 A 
BRANCH   3  10
ATOM      9  N   UNL     1      52.060   8.064  13.135  0.00  0.00    +0.000 N 
ATOM     10  C   UNL     1      50.843   8.692  13.202  0.00  0.00    +0.000 C 
ATOM     11  O   UNL     1      50.750   9.908  13.135  0.00  0.00    +0.000 OA
ATOM     12  H   UNL     1      52.858   8.660  12.952  0.00  0.00    +0.000 HD
ATOM     13  H   UNL     1      52.155   7.081  12.927  0.00  0.00    +0.000 HD
ENDBRANCH   3  10
ENDBRANCH   2   7
ENDBRANCH   1   2
BRANCH   1  14
ATOM     14  C   UNL     1      44.153   6.660  11.112  0.00  0.00    +0.000 C 
BRANCH  14  15
ATOM     15  C   UNL     1      44.230   5.168  10.897  0.00  0.00    +0.000 A 
ATOM     16  C   UNL     1      43.411   4.301  11.626  0.00  0.00    +0.000 A 
ATOM     17  C   UNL     1      43.408   2.939  11.339  0.00  0.00    +0.000 A 
ATOM     18  C   UNL     1      44.207   2.438  10.310  0.00  0.00    +0.000 A 
ATOM     19  C   UNL     1      45.017   3.283   9.532  0.00  0.00    +0.000 A 
ATOM     20  C   UNL     1      45.035   4.649   9.870  0.00  0.00    +0.000 A 
BRANCH  19  21
ATOM     21  C   UNL     1      45.737   2.782   8.338  0.00  0.00    +0.000 A 
ATOM     22  C   UNL     1      46.042   3.650   7.270  0.00  0.00    +0.000 A 
ATOM     23  C   UNL     1      46.803   3.228   6.178  0.00  0.00    +0.000 A 
ATOM     24  C   UNL     1      47.286   1.927   6.128  0.00  0.00    +0.000 A 
ATOM     25  C   UNL     1      46.989   1.041   7.160  0.00  0.00    +0.000 A 
ATOM     26  C   UNL     1      46.214   1.463   8.246  0.00  0.00    +0.000 A 
ENDBRANCH  19  21
ENDBRANCH  14  15
ENDBRANCH   1  14
TORSDOF 6
ENDMDL
MODEL 9
REMARK VINA RESULT:    -6.990      4.819      8.185
REMARK INTER + INTRA:         -10.456
REMARK INTER:                  -9.751
REMARK INTRA:                  -0.705
REMARK UNBOUND:                -1.015
REMARK  Name = 
REMARK  6 active torsions:
REMARK  status: ('A' for Active; 'I' for Inactive)
REMARK    1  A    between atoms: C_2  and  C_4
REMARK    2  A    between atoms: C_8  and  O_9
REMARK    3  A    between atoms: O_9  and  C_10
REMARK    4  A    between atoms: C_10  and  C_11
REMARK    5  A    between atoms: C_11  and  C_12
REMARK    6  A    between atoms: C_16  and  C_17
REMARK                            x       y       z     vdW  Elec       q    Type
REMARK                         _______ _______ _______ _____ _____    ______ ____
ROOT
ATOM      1  C   UNL     1      47.324   5.414  13.646  0.00  0.00    +0.000 C 
ENDROOT
BRANCH   1   2
ATOM      2  O   UNL     1      47.978   5.924  14.810  0.00  0.00    +0.000 OA
BRANCH   2   7
ATOM      3  C   UNL     1      48.514   4.419  18.157  0.00  0.00    +0.000 A 
ATOM      4  C   UNL     1      47.875   3.214  17.902  0.00  0.00    +0.000 A 
ATOM      5  N   UNL     1      47.279   2.920  16.722  0.00  0.00    +0.000 NA
ATOM      6  C   UNL     1      47.351   3.868  15.755  0.00  0.00    +0.000 A 
ATOM      7  C   UNL     1      47.991   5.097  15.901  0.00  0.00    +0.000 A 
ATOM      8  C   UNL     1      48.583   5.369  17.133  0.00  0.00    +0.000 A 
BRANCH   3  10
ATOM      9  N   UNL     1      48.550   3.974  20.545  0.00  0.00    +0.000 N 
ATOM     10  C   UNL     1      49.113   4.643  19.490  0.00  0.00    +0.000 C 
ATOM     11  O   UNL     1      50.090   5.361  19.640  0.00  0.00    +0.000 OA
ATOM     12  H   UNL     1      49.035   4.052  21.430  0.00  0.00    +0.000 HD
ATOM     13  H   UNL     1      47.927   3.190  20.423  0.00  0.00    +0.000 HD
ENDBRANCH   3  10
ENDBRANCH   2   7
ENDBRANCH   1   2
BRANCH   1  14
ATOM     14  C   UNL     1      46.127   6.298  13.291  0.00  0.00    +0.000 C 
BRANCH  14  15
ATOM     15  C   UNL     1      45.179   5.545  12.391  0.00  0.00    +0.000 A 
ATOM     16  C   UNL     1      43.797   5.713  12.512  0.00  0.00    +0.000 A 
ATOM     17  C   UNL     1      42.937   5.102  11.603  0.00  0.00    +0.000 A 
ATOM     18  C   UNL     1      43.454   4.338  10.555  0.00  0.00    +0.000 A 
ATOM     19  C   UNL     1      44.839   4.174  10.379  0.00  0.00    +0.000 A 
ATOM     20  C   UNL     1      45.684   4.766  11.337  0.00  0.00    +0.000 A 
BRANCH  19  21
ATOM     21  C   UNL     1      45.394   3.505   9.179  0.00  0.00    +0.000 A 
ATOM     22  C   UNL     1      45.909   4.265   8.110  0.00  0.00    +0.000 A 
ATOM     23  C   UNL     1      46.525   3.661   7.013  0.00  0.00    +0.000 A 
ATOM     24  C   UNL     1      46.649   2.278   6.959  0.00  0.00    +0.000 A 
ATOM     25  C   UNL     1      46.136   1.499   7.993  0.00  0.00    +0.000 A 
ATOM     26  C   UNL     1      45.506   2.107   9.084  0.00  0.00    +0.000 A 
ENDBRANCH  19  21
ENDBRANCH  14  15
ENDBRANCH   1  14
TORSDOF 6
ENDMDL
