MODEL 1
REMARK VINA RESULT:    -8.779      0.000      0.000
REMARK INTER + INTRA:         -11.954
REMARK INTER:                 -11.346
REMARK INTRA:                  -0.609
REMARK UNBOUND:                -0.609
REMARK  Name = 
REMARK  5 active torsions:
REMARK  status: ('A' for Active; 'I' for Inactive)
REMARK    1  A    between atoms: C_2  and  C_18
REMARK    2  A    between atoms: N_3  and  C_4
REMARK    3  A    between atoms: C_4  and  C_5
REMARK    4  A    between atoms: C_8  and  C_9
REMARK    5  A    between atoms: C_9  and  C_10
REMARK                            x       y       z     vdW  Elec       q    Type
REMARK                         _______ _______ _______ _____ _____    ______ ____
ROOT
ATOM      1  O   UNL     1      48.710   6.675  12.851  0.00  0.00    +0.000 OA
ATOM      2  C   UNL     1      47.976   6.610  13.833  0.00  0.00    +0.000 C 
ATOM      3  N   UNL     1      46.617   6.793  13.759  0.00  0.00    +0.000 N 
ATOM      4  H   UNL     1      46.097   6.927  14.617  0.00  0.00    +0.000 HD
ENDROOT
BRANCH   2   5
ATOM      5  C   UNL     1      48.500   6.258  15.159  0.00  0.00    +0.000 A 
ATOM      6  C   UNL     1      49.441   7.073  15.772  0.00  0.00    +0.000 A 
ATOM      7  S   UNL     1      49.976   6.480  17.281  0.00  0.00    +0.000 S 
ATOM      8  C   UNL     1      48.927   5.142  17.191  0.00  0.00    +0.000 A 
ATOM      9  N   UNL     1      48.874   4.224  18.193  0.00  0.00    +0.000 NA
ATOM     10  C   UNL     1      48.001   3.291  18.016  0.00  0.00    +0.000 A 
ATOM     11  N   UNL     1      47.177   3.190  16.926  0.00  0.00    +0.000 N 
ATOM     12  C   UNL     1      47.246   4.051  15.857  0.00  0.00    +0.000 A 
ATOM     13  O   UNL     1      46.583   3.854  14.845  0.00  0.00    +0.000 OA
ATOM     14  C   UNL     1      48.189   5.140  16.022  0.00  0.00    +0.000 A 
ATOM     15  H   UNL     1      46.530   2.420  16.835  0.00  0.00    +0.000 HD
ENDBRANCH   2   5
BRANCH   3  16
ATOM     16  C   UNL     1      45.954   7.216  12.554  0.00  0.00    +0.000 C 
BRANCH  16  17
ATOM     17  C   UNL     1      45.607   6.041  11.680  0.00  0.00    +0.000 A 
ATOM     18  C   UNL     1      45.860   6.094  10.303  0.00  0.00    +0.000 A 
ATOM     19  C   UNL     1      45.551   5.012   9.479  0.00  0.00    +0.000 A 
ATOM     20  C   UNL     1      44.971   3.854  10.012  0.00  0.00    +0.000 A 
ATOM     21  C   UNL     1      44.698   3.805  11.385  0.00  0.00    +0.000 A 
ATOM     22  C   UNL     1      45.005   4.894  12.210  0.00  0.00    +0.000 A 
BRANCH  20  23
ATOM     23  C   UNL     1      44.674   2.669   9.121  0.00  0.00    +0.000 C 
BRANCH  23  24
ATOM     24  C   UNL     1      45.721   2.441   8.063  0.00  0.00    +0.000 A 
ATOM     25  C   UNL     1      45.923   3.354   7.024  0.00  0.00    +0.000 A 
ATOM     26  C   UNL     1      46.865   3.080   6.037  0.00  0.00    +0.000 A 
ATOM     27  C   UNL     1      47.581   1.898   6.122  0.00  0.00    +0.000 A 
ATOM     28  N   UNL     1      47.426   0.997   7.114  0.00  0.00    +0.000 NA
ATOM     29  C   UNL     1      46.497   1.286   8.055  0.00  0.00    +0.000 A 
ENDBRANCH  23  24
ENDBRANCH  20  23
ENDBRANCH  16  17
ENDBRANCH   3  16
TORSDOF 5
ENDMDL
MODEL 2
REMARK VINA RESULT:    -8.419      1.478      2.252
REMARK INTER + INTRA:         -11.489
REMARK INTER:                 -10.721
REMARK INTRA:                  -0.768
REMARK UNBOUND:                -0.609
REMARK  Name = 
REMARK  5 active torsions:
REMARK  status: ('A' for Active; 'I' for Inactive)
REMARK    1  A    between atoms: C_2  and  C_18
REMARK    2  A    between atoms: N_3  and  C_4
REMARK    3  A    between atoms: C_4  and  C_5
REMARK    4  A    between atoms: C_8  and  C_9
REMARK    5  A    between atoms: C_9  and  C_10
REMARK                            x       y       z     vdW  Elec       q    Type
REMARK                         _______ _______ _______ _____ _____    ______ ____
ROOT
ATOM      1  O   UNL     1      48.424   6.016  13.726  0.00  0.00    +0.000 OA
ATOM      2  C   UNL     1      47.522   5.611  14.453  0.00  0.00    +0.000 C 
ATOM      3  N   UNL     1      46.195   5.693  14.108  0.00  0.00    +0.000 N 
ATOM      4  H   UNL     1      45.495   5.531  14.821  0.00  0.00    +0.000 HD
ENDROOT
BRANCH   2   5
ATOM      5  C   UNL     1      47.806   4.938  15.726  0.00  0.00    +0.000 A 
ATOM      6  C   UNL     1      47.484   3.598  15.891  0.00  0.00    +0.000 A 
ATOM      7  S   UNL     1      47.835   2.998  17.450  0.00  0.00    +0.000 S 
ATOM      8  C   UNL     1      48.481   4.495  17.942  0.00  0.00    +0.000 A 
ATOM      9  N   UNL     1      48.984   4.664  19.194  0.00  0.00    +0.000 NA
ATOM     10  C   UNL     1      49.485   5.832  19.414  0.00  0.00    +0.000 A 
ATOM     11  N   UNL     1      49.525   6.850  18.497  0.00  0.00    +0.000 N 
ATOM     12  C   UNL     1      48.964   6.749  17.247  0.00  0.00    +0.000 A 
ATOM     13  O   UNL     1      48.906   7.721  16.501  0.00  0.00    +0.000 OA
ATOM     14  C   UNL     1      48.418   5.442  16.937  0.00  0.00    +0.000 A 
ATOM     15  H   UNL     1      49.910   7.752  18.740  0.00  0.00    +0.000 HD
ENDBRANCH   2   5
BRANCH   3  16
ATOM     16  C   UNL     1      45.739   6.387  12.932  0.00  0.00    +0.000 C 
BRANCH  16  17
ATOM     17  C   UNL     1      45.492   5.432  11.795  0.00  0.00    +0.000 A 
ATOM     18  C   UNL     1      45.124   4.107  12.062  0.00  0.00    +0.000 A 
ATOM     19  C   UNL     1      44.884   3.211  11.020  0.00  0.00    +0.000 A 
ATOM     20  C   UNL     1      45.019   3.616   9.686  0.00  0.00    +0.000 A 
ATOM     21  C   UNL     1      45.407   4.935   9.417  0.00  0.00    +0.000 A 
ATOM     22  C   UNL     1      45.651   5.832  10.463  0.00  0.00    +0.000 A 
BRANCH  20  23
ATOM     23  C   UNL     1      44.720   2.652   8.561  0.00  0.00    +0.000 C 
BRANCH  23  24
ATOM     24  C   UNL     1      45.877   2.459   7.616  0.00  0.00    +0.000 A 
ATOM     25  C   UNL     1      46.064   3.289   6.508  0.00  0.00    +0.000 A 
ATOM     26  C   UNL     1      47.117   3.044   5.632  0.00  0.00    +0.000 A 
ATOM     27  C   UNL     1      47.955   1.973   5.894  0.00  0.00    +0.000 A 
ATOM     28  N   UNL     1      47.816   1.156   6.958  0.00  0.00    +0.000 NA
ATOM     29  C   UNL     1      46.779   1.413   7.789  0.00  0.00    +0.000 A 
ENDBRANCH  23  24
ENDBRANCH  20  23
ENDBRANCH  16  17
ENDBRANCH   3  16
TORSDOF 5
ENDMDL
MODEL 3
REMARK VINA RESULT:    -8.038      2.069      3.425
REMARK INTER + INTRA:         -10.997
REMARK INTER:                 -10.559
REMARK INTRA:                  -0.438
REMARK UNBOUND:                -0.609
REMARK  Name = 
REMARK  5 active torsions:
REMARK  status: ('A' for Active; 'I' for Inactive)
REMARK    1  A    between atoms: C_2  and  C_18
REMARK    2  A    between atoms: N_3  and  C_4
REMARK    3  A    between atoms: C_4  and  C_5
REMARK    4  A    between atoms: C_8  and  C_9
REMARK    5  A    between atoms: C_9  and  C_10
REMARK                            x       y       z     vdW  Elec       q    Type
REMARK                         _______ _______ _______ _____ _____    ______ ____
ROOT
ATOM      1  O   UNL     1      46.365   4.480  14.263  0.00  0.00    +0.000 OA
ATOM      2  C   UNL     1      46.591   5.638  13.924  0.00  0.00    +0.000 C 
ATOM      3  N   UNL     1      45.643   6.439  13.337  0.00  0.00    +0.000 N 
ATOM      4  H   UNL     1      45.938   7.304  12.900  0.00  0.00    +0.000 HD
ENDROOT
BRANCH   2   5
ATOM      5  C   UNL     1      47.886   6.276  14.191  0.00  0.00    +0.000 A 
ATOM      6  C   UNL     1      48.464   6.174  15.448  0.00  0.00    +0.000 A 
ATOM      7  S   UNL     1      49.938   7.023  15.593  0.00  0.00    +0.000 S 
ATOM      8  C   UNL     1      49.882   7.511  13.962  0.00  0.00    +0.000 A 
ATOM      9  N   UNL     1      50.874   8.269  13.423  0.00  0.00    +0.000 NA
ATOM     10  C   UNL     1      50.727   8.524  12.166  0.00  0.00    +0.000 A 
ATOM     11  N   UNL     1      49.676   8.092  11.400  0.00  0.00    +0.000 N 
ATOM     12  C   UNL     1      48.616   7.387  11.918  0.00  0.00    +0.000 A 
ATOM     13  O   UNL     1      47.634   7.129  11.231  0.00  0.00    +0.000 OA
ATOM     14  C   UNL     1      48.750   7.045  13.320  0.00  0.00    +0.000 A 
ATOM     15  H   UNL     1      49.606   8.346  10.425  0.00  0.00    +0.000 HD
ENDBRANCH   2   5
BRANCH   3  16
ATOM     16  C   UNL     1      44.350   5.950  12.939  0.00  0.00    +0.000 C 
BRANCH  16  17
ATOM     17  C   UNL     1      44.469   4.901  11.865  0.00  0.00    +0.000 A 
ATOM     18  C   UNL     1      43.963   3.613  12.085  0.00  0.00    +0.000 A 
ATOM     19  C   UNL     1      44.059   2.632  11.099  0.00  0.00    +0.000 A 
ATOM     20  C   UNL     1      44.675   2.912   9.873  0.00  0.00    +0.000 A 
ATOM     21  C   UNL     1      45.202   4.192   9.658  0.00  0.00    +0.000 A 
ATOM     22  C   UNL     1      45.107   5.175  10.650  0.00  0.00    +0.000 A 
BRANCH  20  23
ATOM     23  C   UNL     1      44.742   1.856   8.792  0.00  0.00    +0.000 C 
BRANCH  23  24
ATOM     24  C   UNL     1      45.877   2.063   7.824  0.00  0.00    +0.000 A 
ATOM     25  C   UNL     1      45.901   3.148   6.945  0.00  0.00    +0.000 A 
ATOM     26  C   UNL     1      46.943   3.274   6.031  0.00  0.00    +0.000 A 
ATOM     27  C   UNL     1      47.934   2.307   6.027  0.00  0.00    +0.000 A 
ATOM     28  N   UNL     1      47.954   1.251   6.867  0.00  0.00    +0.000 NA
ATOM     29  C   UNL     1      46.924   1.150   7.739  0.00  0.00    +0.000 A 
ENDBRANCH  23  24
ENDBRANCH  20  23
ENDBRANCH  16  17
ENDBRANCH   3  16
TORSDOF 5
ENDMDL
MODEL 4
REMARK VINA RESULT:    -8.003      1.985      2.436
REMARK INTER + INTRA:         -10.951
REMARK INTER:                 -10.134
REMARK INTRA:                  -0.816
REMARK UNBOUND:                -0.609
REMARK  Name = 
REMARK  5 active torsions:
REMARK  status: ('A' for Active; 'I' for Inactive)
REMARK    1  A    between atoms: C_2  and  C_18
REMARK    2  A    between atoms: N_3  and  C_4
REMARK    3  A    between atoms: C_4  and  C_5
REMARK    4  A    between atoms: C_8  and  C_9
REMARK    5  A    between atoms: C_9  and  C_10
REMARK                            x       y       z     vdW  Elec       q    Type
REMARK                         _______ _______ _______ _____ _____    ______ ____
ROOT
ATOM      1  O   UNL     1      49.543   6.551  15.045  0.00  0.00    +0.000 OA
ATOM      2  C   UNL     1      48.506   6.030  15.446  0.00  0.00    +0.000 C 
ATOM      3  N   UNL     1      47.338   6.048  14.724  0.00  0.00    +0.000 N 
ATOM      4  H   UNL     1      46.476   5.784  15.186  0.00  0.00    +0.000 HD
ENDROOT
BRANCH   2   5
ATOM      5  C   UNL     1      48.463   5.281  16.708  0.00  0.00    +0.000 A 
ATOM      6  C   UNL     1      48.490   3.894  16.693  0.00  0.00    +0.000 A 
ATOM      7  S   UNL     1      48.376   3.192  18.244  0.00  0.00    +0.000 S 
ATOM      8  C   UNL     1      48.341   4.720  18.994  0.00  0.00    +0.000 A 
ATOM      9  N   UNL     1      48.264   4.836  20.347  0.00  0.00    +0.000 NA
ATOM     10  C   UNL     1      48.295   6.050  20.782  0.00  0.00    +0.000 A 
ATOM     11  N   UNL     1      48.395   7.161  19.986  0.00  0.00    +0.000 N 
ATOM     12  C   UNL     1      48.401   7.097  18.613  0.00  0.00    +0.000 A 
ATOM     13  O   UNL     1      48.362   8.116  17.934  0.00  0.00    +0.000 OA
ATOM     14  C   UNL     1      48.403   5.751  18.075  0.00  0.00    +0.000 A 
ATOM     15  H   UNL     1      48.390   8.088  20.387  0.00  0.00    +0.000 HD
ENDBRANCH   2   5
BRANCH   3  16
ATOM     16  C   UNL     1      47.188   6.799  13.506  0.00  0.00    +0.000 C 
BRANCH  16  17
ATOM     17  C   UNL     1      46.473   5.995  12.453  0.00  0.00    +0.000 A 
ATOM     18  C   UNL     1      46.310   6.519  11.164  0.00  0.00    +0.000 A 
ATOM     19  C   UNL     1      45.656   5.785  10.174  0.00  0.00    +0.000 A 
ATOM     20  C   UNL     1      45.139   4.513  10.455  0.00  0.00    +0.000 A 
ATOM     21  C   UNL     1      45.282   3.996  11.749  0.00  0.00    +0.000 A 
ATOM     22  C   UNL     1      45.935   4.736  12.742  0.00  0.00    +0.000 A 
BRANCH  20  23
ATOM     23  C   UNL     1      44.465   3.706   9.368  0.00  0.00    +0.000 C 
BRANCH  23  24
ATOM     24  C   UNL     1      45.433   2.928   8.516  0.00  0.00    +0.000 A 
ATOM     25  C   UNL     1      46.129   3.528   7.464  0.00  0.00    +0.000 A 
ATOM     26  C   UNL     1      46.975   2.761   6.668  0.00  0.00    +0.000 A 
ATOM     27  C   UNL     1      47.101   1.412   6.954  0.00  0.00    +0.000 A 
ATOM     28  N   UNL     1      46.457   0.797   7.967  0.00  0.00    +0.000 NA
ATOM     29  C   UNL     1      45.635   1.566   8.719  0.00  0.00    +0.000 A 
ENDBRANCH  23  24
ENDBRANCH  20  23
ENDBRANCH  16  17
ENDBRANCH   3  16
TORSDOF 5
ENDMDL
MODEL 5
REMARK VINA RESULT:    -7.757      3.963      9.494
REMARK INTER + INTRA:         -10.633
REMARK INTER:                  -9.758
REMARK INTRA:                  -0.875
REMARK UNBOUND:                -0.609
REMARK  Name = 
REMARK  5 active torsions:
REMARK  status: ('A' for Active; 'I' for Inactive)
REMARK    1  A    between atoms: C_2  and  C_18
REMARK    2  A    between atoms: N_3  and  C_4
REMARK    3  A    between atoms: C_4  and  C_5
REMARK    4  A    between atoms: C_8  and  C_9
REMARK    5  A    between atoms: C_9  and  C_10
REMARK                            x       y       z     vdW  Elec       q    Type
REMARK                         _______ _______ _______ _____ _____    ______ ____
ROOT
ATOM      1  O   UNL     1      47.313   3.146  14.009  0.00  0.00    +0.000 OA
ATOM      2  C   UNL     1      46.844   4.196  14.439  0.00  0.00    +0.000 C 
ATOM      3  N   UNL     1      46.809   4.501  15.777  0.00  0.00    +0.000 N 
ATOM      4  H   UNL     1      46.237   5.278  16.085  0.00  0.00    +0.000 HD
ENDROOT
BRANCH   2   5
ATOM      5  C   UNL     1      46.346   5.241  13.535  0.00  0.00    +0.000 A 
ATOM      6  C   UNL     1      47.148   6.330  13.226  0.00  0.00    +0.000 A 
ATOM      7  S   UNL     1      46.388   7.471  12.208  0.00  0.00    +0.000 S 
ATOM      8  C   UNL     1      44.980   6.519  12.101  0.00  0.00    +0.000 A 
ATOM      9  N   UNL     1      43.917   6.921  11.353  0.00  0.00    +0.000 NA
ATOM     10  C   UNL     1      42.938   6.081  11.322  0.00  0.00    +0.000 A 
ATOM     11  N   UNL     1      42.923   4.876  11.975  0.00  0.00    +0.000 N 
ATOM     12  C   UNL     1      43.941   4.462  12.800  0.00  0.00    +0.000 A 
ATOM     13  O   UNL     1      43.837   3.438  13.466  0.00  0.00    +0.000 OA
ATOM     14  C   UNL     1      45.082   5.356  12.841  0.00  0.00    +0.000 A 
ATOM     15  H   UNL     1      42.114   4.272  11.930  0.00  0.00    +0.000 HD
ENDBRANCH   2   5
BRANCH   3  16
ATOM     16  C   UNL     1      47.187   3.561  16.799  0.00  0.00    +0.000 C 
BRANCH  16  17
ATOM     17  C   UNL     1      48.661   3.641  17.097  0.00  0.00    +0.000 A 
ATOM     18  C   UNL     1      49.432   2.472  17.135  0.00  0.00    +0.000 A 
ATOM     19  C   UNL     1      50.799   2.529  17.403  0.00  0.00    +0.000 A 
ATOM     20  C   UNL     1      51.426   3.757  17.652  0.00  0.00    +0.000 A 
ATOM     21  C   UNL     1      50.654   4.925  17.636  0.00  0.00    +0.000 A 
ATOM     22  C   UNL     1      49.281   4.866  17.370  0.00  0.00    +0.000 A 
BRANCH  20  23
ATOM     23  C   UNL     1      52.916   3.816  17.903  0.00  0.00    +0.000 C 
BRANCH  23  24
ATOM     24  C   UNL     1      53.290   3.561  19.339  0.00  0.00    +0.000 A 
ATOM     25  C   UNL     1      52.801   4.359  20.377  0.00  0.00    +0.000 A 
ATOM     26  C   UNL     1      53.212   4.121  21.684  0.00  0.00    +0.000 A 
ATOM     27  C   UNL     1      54.102   3.085  21.915  0.00  0.00    +0.000 A 
ATOM     28  N   UNL     1      54.588   2.284  20.944  0.00  0.00    +0.000 NA
ATOM     29  C   UNL     1      54.177   2.545  19.682  0.00  0.00    +0.000 A 
ENDBRANCH  23  24
ENDBRANCH  20  23
ENDBRANCH  16  17
ENDBRANCH   3  16
TORSDOF 5
ENDMDL
MODEL 6
REMARK VINA RESULT:    -7.706      1.731      2.462
REMARK INTER + INTRA:         -10.568
REMARK INTER:                 -10.451
REMARK INTRA:                  -0.117
REMARK UNBOUND:                -0.609
REMARK  Name = 
REMARK  5 active torsions:
REMARK  status: ('A' for Active; 'I' for Inactive)
REMARK    1  A    between atoms: C_2  and  C_18
REMARK    2  A    between atoms: N_3  and  C_4
REMARK    3  A    between atoms: C_4  and  C_5
REMARK    4  A    between atoms: C_8  and  C_9
REMARK    5  A    between atoms: C_9  and  C_10
REMARK                            x       y       z     vdW  Elec       q    Type
REMARK                         _______ _______ _______ _____ _____    ______ ____
ROOT
ATOM      1  O   UNL     1      46.438   4.547  14.321  0.00  0.00    +0.000 OA
ATOM      2  C   UNL     1      46.612   5.693  13.918  0.00  0.00    +0.000 C 
ATOM      3  N   UNL     1      45.614   6.433  13.331  0.00  0.00    +0.000 N 
ATOM      4  H   UNL     1      45.862   7.284  12.842  0.00  0.00    +0.000 HD
ENDROOT
BRANCH   2   5
ATOM      5  C   UNL     1      47.893   6.386  14.101  0.00  0.00    +0.000 A 
ATOM      6  C   UNL     1      48.413   7.166  13.078  0.00  0.00    +0.000 A 
ATOM      7  S   UNL     1      49.933   7.849  13.446  0.00  0.00    +0.000 S 
ATOM      8  C   UNL     1      49.923   7.169  15.007  0.00  0.00    +0.000 A 
ATOM      9  N   UNL     1      50.952   7.383  15.871  0.00  0.00    +0.000 NA
ATOM     10  C   UNL     1      50.790   6.850  17.035  0.00  0.00    +0.000 A 
ATOM     11  N   UNL     1      49.694   6.119  17.413  0.00  0.00    +0.000 N 
ATOM     12  C   UNL     1      48.667   5.816  16.552  0.00  0.00    +0.000 A 
ATOM     13  O   UNL     1      47.766   5.055  16.888  0.00  0.00    +0.000 OA
ATOM     14  C   UNL     1      48.784   6.422  15.240  0.00  0.00    +0.000 A 
ATOM     15  H   UNL     1      49.639   5.707  18.334  0.00  0.00    +0.000 HD
ENDBRANCH   2   5
BRANCH   3  16
ATOM     16  C   UNL     1      44.324   5.882  13.010  0.00  0.00    +0.000 C 
BRANCH  16  17
ATOM     17  C   UNL     1      44.425   4.860  11.908  0.00  0.00    +0.000 A 
ATOM     18  C   UNL     1      43.816   3.607  12.058  0.00  0.00    +0.000 A 
ATOM     19  C   UNL     1      43.894   2.652  11.046  0.00  0.00    +0.000 A 
ATOM     20  C   UNL     1      44.594   2.922   9.863  0.00  0.00    +0.000 A 
ATOM     21  C   UNL     1      45.222   4.166   9.719  0.00  0.00    +0.000 A 
ATOM     22  C   UNL     1      45.146   5.123  10.738  0.00  0.00    +0.000 A 
BRANCH  20  23
ATOM     23  C   UNL     1      44.643   1.897   8.752  0.00  0.00    +0.000 C 
BRANCH  23  24
ATOM     24  C   UNL     1      45.805   2.087   7.814  0.00  0.00    +0.000 A 
ATOM     25  C   UNL     1      45.867   3.171   6.935  0.00  0.00    +0.000 A 
ATOM     26  C   UNL     1      46.934   3.282   6.048  0.00  0.00    +0.000 A 
ATOM     27  C   UNL     1      47.911   2.302   6.071  0.00  0.00    +0.000 A 
ATOM     28  N   UNL     1      47.896   1.247   6.912  0.00  0.00    +0.000 NA
ATOM     29  C   UNL     1      46.842   1.161   7.757  0.00  0.00    +0.000 A 
ENDBRANCH  23  24
ENDBRANCH  20  23
ENDBRANCH  16  17
ENDBRANCH   3  16
TORSDOF 5
ENDMDL
MODEL 7
REMARK VINA RESULT:    -7.660      3.205      4.028
REMARK INTER + INTRA:         -10.508
REMARK INTER:                 -10.386
REMARK INTRA:                  -0.122
REMARK UNBOUND:                -0.609
REMARK  Name = 
REMARK  5 active torsions:
REMARK  status: ('A' for Active; 'I' for Inactive)
REMARK    1  A    between atoms: C_2  and  C_18
REMARK    2  A    between atoms: N_3  and  C_4
REMARK    3  A    between atoms: C_4  and  C_5
REMARK    4  A    between atoms: C_8  and  C_9
REMARK    5  A    between atoms: C_9  and  C_10
REMARK                            x       y       z     vdW  Elec       q    Type
REMARK                         _______ _______ _______ _____ _____    ______ ____
ROOT
ATOM      1  O   UNL     1      44.755   8.452  11.274  0.00  0.00    +0.000 OA
ATOM      2  C   UNL     1      45.617   8.166  12.100  0.00  0.00    +0.000 C 
ATOM      3  N   UNL     1      45.548   7.044  12.888  0.00  0.00    +0.000 N 
ATOM      4  H   UNL     1      46.174   6.966  13.680  0.00  0.00    +0.000 HD
ENDROOT
BRANCH   2   5
ATOM      5  C   UNL     1      46.831   8.977  12.253  0.00  0.00    +0.000 A 
ATOM      6  C   UNL     1      46.749  10.362  12.228  0.00  0.00    +0.000 A 
ATOM      7  S   UNL     1      48.263  11.139  12.365  0.00  0.00    +0.000 S 
ATOM      8  C   UNL     1      49.075   9.650  12.518  0.00  0.00    +0.000 A 
ATOM      9  N   UNL     1      50.424   9.602  12.685  0.00  0.00    +0.000 NA
ATOM     10  C   UNL     1      50.901   8.412  12.837  0.00  0.00    +0.000 A 
ATOM     11  N   UNL     1      50.151   7.265  12.834  0.00  0.00    +0.000 N 
ATOM     12  C   UNL     1      48.798   7.260  12.595  0.00  0.00    +0.000 A 
ATOM     13  O   UNL     1      48.183   6.206  12.473  0.00  0.00    +0.000 OA
ATOM     14  C   UNL     1      48.207   8.576  12.453  0.00  0.00    +0.000 A 
ATOM     15  H   UNL     1      50.588   6.360  12.933  0.00  0.00    +0.000 HD
ENDBRANCH   2   5
BRANCH   3  16
ATOM     16  C   UNL     1      44.395   6.183  12.916  0.00  0.00    +0.000 C 
BRANCH  16  17
ATOM     17  C   UNL     1      44.509   5.082  11.896  0.00  0.00    +0.000 A 
ATOM     18  C   UNL     1      44.077   3.788  12.212  0.00  0.00    +0.000 A 
ATOM     19  C   UNL     1      44.169   2.758  11.277  0.00  0.00    +0.000 A 
ATOM     20  C   UNL     1      44.708   2.995  10.006  0.00  0.00    +0.000 A 
ATOM     21  C   UNL     1      45.160   4.284   9.694  0.00  0.00    +0.000 A 
ATOM     22  C   UNL     1      45.070   5.316  10.635  0.00  0.00    +0.000 A 
BRANCH  20  23
ATOM     23  C   UNL     1      44.769   1.884   8.982  0.00  0.00    +0.000 C 
BRANCH  23  24
ATOM     24  C   UNL     1      45.844   2.084   7.947  0.00  0.00    +0.000 A 
ATOM     25  C   UNL     1      45.821   3.169   7.067  0.00  0.00    +0.000 A 
ATOM     26  C   UNL     1      46.806   3.289   6.092  0.00  0.00    +0.000 A 
ATOM     27  C   UNL     1      47.790   2.317   6.028  0.00  0.00    +0.000 A 
ATOM     28  N   UNL     1      47.855   1.261   6.866  0.00  0.00    +0.000 NA
ATOM     29  C   UNL     1      46.880   1.167   7.799  0.00  0.00    +0.000 A 
ENDBRANCH  23  24
ENDBRANCH  20  23
ENDBRANCH  16  17
ENDBRANCH   3  16
TORSDOF 5
ENDMDL
MODEL 8
REMARK VINA RESULT:    -7.392      2.138      2.811
REMARK INTER + INTRA:         -10.161
REMARK INTER:                  -9.487
REMARK INTRA:                  -0.674
REMARK UNBOUND:                -0.609
REMARK  Name = 
REMARK  5 active torsions:
REMARK  status: ('A' for Active; 'I' for Inactive)
REMARK    1  A    between atoms: C_2  and  C_18
REMARK    2  A    between atoms: N_3  and  C_4
REMARK    3  A    between atoms: C_4  and  C_5
REMARK    4  A    between atoms: C_8  and  C_9
REMARK    5  A    between atoms: C_9  and  C_10
REMARK                            x       y       z     vdW  Elec       q    Type
REMARK                         _______ _______ _______ _____ _____    ______ ____
ROOT
ATOM      1  O   UNL     1      50.250   6.177  16.055  0.00  0.00    +0.000 OA
ATOM      2  C   UNL     1      49.183   6.723  16.320  0.00  0.00    +0.000 C 
ATOM      3  N   UNL     1      48.319   7.173  15.352  0.00  0.00    +0.000 N 
ATOM      4  H   UNL     1      47.561   7.787  15.623  0.00  0.00    +0.000 HD
ENDROOT
BRANCH   2   5
ATOM      5  C   UNL     1      48.719   6.870  17.705  0.00  0.00    +0.000 A 
ATOM      6  C   UNL     1      48.248   8.097  18.152  0.00  0.00    +0.000 A 
ATOM      7  S   UNL     1      47.805   8.097  19.801  0.00  0.00    +0.000 S 
ATOM      8  C   UNL     1      48.176   6.443  19.959  0.00  0.00    +0.000 A 
ATOM      9  N   UNL     1      48.005   5.796  21.143  0.00  0.00    +0.000 NA
ATOM     10  C   UNL     1      48.279   4.536  21.107  0.00  0.00    +0.000 A 
ATOM     11  N   UNL     1      48.712   3.863  19.995  0.00  0.00    +0.000 N 
ATOM     12  C   UNL     1      48.969   4.489  18.798  0.00  0.00    +0.000 A 
ATOM     13  O   UNL     1      49.477   3.878  17.864  0.00  0.00    +0.000 OA
ATOM     14  C   UNL     1      48.643   5.901  18.776  0.00  0.00    +0.000 A 
ATOM     15  H   UNL     1      48.933   2.879  20.038  0.00  0.00    +0.000 HD
ENDBRANCH   2   5
BRANCH   3  16
ATOM     16  C   UNL     1      48.651   7.173  13.952  0.00  0.00    +0.000 C 
BRANCH  16  17
ATOM     17  C   UNL     1      47.571   6.517  13.134  0.00  0.00    +0.000 A 
ATOM     18  C   UNL     1      47.169   7.088  11.919  0.00  0.00    +0.000 A 
ATOM     19  C   UNL     1      46.175   6.490  11.145  0.00  0.00    +0.000 A 
ATOM     20  C   UNL     1      45.549   5.312  11.575  0.00  0.00    +0.000 A 
ATOM     21  C   UNL     1      45.934   4.750  12.799  0.00  0.00    +0.000 A 
ATOM     22  C   UNL     1      46.930   5.354  13.576  0.00  0.00    +0.000 A 
BRANCH  20  23
ATOM     23  C   UNL     1      44.500   4.647  10.713  0.00  0.00    +0.000 C 
BRANCH  23  24
ATOM     24  C   UNL     1      45.080   3.785   9.623  0.00  0.00    +0.000 A 
ATOM     25  C   UNL     1      45.584   4.338   8.443  0.00  0.00    +0.000 A 
ATOM     26  C   UNL     1      46.065   3.503   7.439  0.00  0.00    +0.000 A 
ATOM     27  C   UNL     1      46.028   2.134   7.649  0.00  0.00    +0.000 A 
ATOM     28  N   UNL     1      45.562   1.561   8.778  0.00  0.00    +0.000 NA
ATOM     29  C   UNL     1      45.094   2.398   9.733  0.00  0.00    +0.000 A 
ENDBRANCH  23  24
ENDBRANCH  20  23
ENDBRANCH  16  17
ENDBRANCH   3  16
TORSDOF 5
ENDMDL
