MODEL 1
REMARK VINA RESULT:    -7.612      0.000      0.000
REMARK INTER + INTRA:         -12.781
REMARK INTER:                 -11.840
REMARK INTRA:                  -0.942
REMARK UNBOUND:                -0.942
REMARK  Name = 
REMARK  11 active torsions:
REMARK  status: ('A' for Active; 'I' for Inactive)
REMARK    1  A    between atoms: C_1  and  C_2
REMARK    2  A    between atoms: C_2  and  O_3
REMARK    3  A    between atoms: C_2  and  C_10
REMARK    4  A    between atoms: O_3  and  C_4
REMARK    5  A    between atoms: C_13  and  C_14
REMARK    6  A    between atoms: C_14  and  N_15
REMARK    7  A    between atoms: N_15  and  C_16
REMARK    8  A    between atoms: N_15  and  C_19
REMARK    9  A    between atoms: C_16  and  C_17
REMARK   10  A    between atoms: C_17  and  O_18
REMARK   11  A    between atoms: C_19  and  C_20
REMARK                            x       y       z     vdW  Elec       q    Type
REMARK                         _______ _______ _______ _____ _____    ______ ____
ROOT
ATOM      1  C   UNL     1      47.781   6.149  14.120  0.00  0.00    +0.000 A 
ATOM      2  C   UNL     1      47.019   4.984  14.044  0.00  0.00    +0.000 A 
ATOM      3  C   UNL     1      46.132   4.825  12.981  0.00  0.00    +0.000 A 
ATOM      4  C   UNL     1      46.027   5.823  12.012  0.00  0.00    +0.000 A 
ATOM      5  C   UNL     1      46.902   6.898  12.109  0.00  0.00    +0.000 A 
ATOM      6  N   UNL     1      47.762   7.083  13.134  0.00  0.00    +0.000 NA
ENDROOT
BRANCH   1   8
ATOM      7  C   UNL     1      49.847   7.263  15.037  0.00  0.00    +0.000 C 
ATOM      8  C   UNL     1      48.607   6.424  15.375  0.00  0.00    +0.000 C 
BRANCH   8   9
ATOM      9  O   UNL     1      48.974   5.171  15.949  0.00  0.00    +0.000 OA
BRANCH   9  10
ATOM     10  C   UNL     1      48.971   5.148  17.325  0.00  0.00    +0.000 A 
ATOM     11  N   UNL     1      47.881   5.544  18.006  0.00  0.00    +0.000 NA
ATOM     12  C   UNL     1      47.971   5.498  19.347  0.00  0.00    +0.000 A 
ATOM     13  C   UNL     1      49.092   5.067  20.017  0.00  0.00    +0.000 A 
ATOM     14  C   UNL     1      50.141   4.672  19.223  0.00  0.00    +0.000 A 
ATOM     15  N   UNL     1      50.106   4.700  17.879  0.00  0.00    +0.000 NA
ENDBRANCH   9  10
ENDBRANCH   8   9
ENDBRANCH   1   8
BRANCH   4  16
ATOM     16  C   UNL     1      44.957   5.787  10.948  0.00  0.00    +0.000 C 
BRANCH  16  17
ATOM     17  N   UNL     1      44.460   4.414  10.661  0.00  0.00    +0.000 NA
BRANCH  17  18
ATOM     18  C   UNL     1      43.168   4.169  11.354  0.00  0.00    +0.000 C 
BRANCH  18  19
ATOM     19  C   UNL     1      42.470   5.424  11.911  0.00  0.00    +0.000 C 
BRANCH  19  20
ATOM     20  O   UNL     1      42.517   5.432  13.336  0.00  0.00    +0.000 OA
ATOM     21  H   UNL     1      43.209   4.803  13.606  0.00  0.00    +0.000 HD
ENDBRANCH  19  20
ENDBRANCH  18  19
ENDBRANCH  17  18
BRANCH  17  22
ATOM     22  C   UNL     1      44.285   4.232   9.204  0.00  0.00    +0.000 C 
BRANCH  22  23
ATOM     23  C   UNL     1      45.316   3.354   8.528  0.00  0.00    +0.000 A 
ATOM     24  C   UNL     1      45.399   1.985   8.819  0.00  0.00    +0.000 A 
ATOM     25  C   UNL     1      46.288   1.167   8.118  0.00  0.00    +0.000 A 
ATOM     26  C   UNL     1      47.101   1.709   7.125  0.00  0.00    +0.000 A 
ATOM     27  C   UNL     1      47.037   3.070   6.838  0.00  0.00    +0.000 A 
ATOM     28  C   UNL     1      46.149   3.889   7.535  0.00  0.00    +0.000 A 
ENDBRANCH  22  23
ENDBRANCH  17  22
ENDBRANCH  16  17
ENDBRANCH   4  16
TORSDOF 10
ENDMDL
MODEL 2
REMARK VINA RESULT:    -7.350      1.371      2.103
REMARK INTER + INTRA:         -12.374
REMARK INTER:                 -11.386
REMARK INTRA:                  -0.987
REMARK UNBOUND:                -0.942
REMARK  Name = 
REMARK  11 active torsions:
REMARK  status: ('A' for Active; 'I' for Inactive)
REMARK    1  A    between atoms: C_1  and  C_2
REMARK    2  A    between atoms: C_2  and  O_3
REMARK    3  A    between atoms: C_2  and  C_10
REMARK    4  A    between atoms: O_3  and  C_4
REMARK    5  A    between atoms: C_13  and  C_14
REMARK    6  A    between atoms: C_14  and  N_15
REMARK    7  A    between atoms: N_15  and  C_16
REMARK    8  A    between atoms: N_15  and  C_19
REMARK    9  A    between atoms: C_16  and  C_17
REMARK   10  A    between atoms: C_17  and  O_18
REMARK   11  A    between atoms: C_19  and  C_20
REMARK                            x       y       z     vdW  Elec       q    Type
REMARK                         _______ _______ _______ _____ _____    ______ ____
ROOT
ATOM      1  C   UNL     1      47.462   4.660  14.875  0.00  0.00    +0.000 A 
ATOM      2  C   UNL     1      46.985   3.549  14.180  0.00  0.00    +0.000 A 
ATOM      3  C   UNL     1      46.319   3.742  12.971  0.00  0.00    +0.000 A 
ATOM      4  C   UNL     1      46.149   5.034  12.473  0.00  0.00    +0.000 A 
ATOM      5  C   UNL     1      46.751   6.071  13.176  0.00  0.00    +0.000 A 
ATOM      6  N   UNL     1      47.391   5.913  14.355  0.00  0.00    +0.000 NA
ENDROOT
BRANCH   1   8
ATOM      7  C   UNL     1      47.036   3.682  17.157  0.00  0.00    +0.000 C 
ATOM      8  C   UNL     1      48.015   4.481  16.287  0.00  0.00    +0.000 C 
BRANCH   8   9
ATOM      9  O   UNL     1      48.255   5.775  16.837  0.00  0.00    +0.000 OA
BRANCH   9  10
ATOM     10  C   UNL     1      49.524   5.959  17.335  0.00  0.00    +0.000 A 
ATOM     11  N   UNL     1      50.570   5.329  16.772  0.00  0.00    +0.000 NA
ATOM     12  C   UNL     1      51.771   5.559  17.332  0.00  0.00    +0.000 A 
ATOM     13  C   UNL     1      51.959   6.392  18.409  0.00  0.00    +0.000 A 
ATOM     14  C   UNL     1      50.824   6.996  18.895  0.00  0.00    +0.000 A 
ATOM     15  N   UNL     1      49.599   6.799  18.377  0.00  0.00    +0.000 NA
ENDBRANCH   9  10
ENDBRANCH   8   9
ENDBRANCH   1   8
BRANCH   4  16
ATOM     16  C   UNL     1      45.281   5.314  11.270  0.00  0.00    +0.000 C 
BRANCH  16  17
ATOM     17  N   UNL     1      44.549   4.113  10.783  0.00  0.00    +0.000 NA
BRANCH  17  18
ATOM     18  C   UNL     1      43.217   4.012  11.434  0.00  0.00    +0.000 C 
BRANCH  18  19
ATOM     19  C   UNL     1      42.620   5.344  11.925  0.00  0.00    +0.000 C 
BRANCH  19  20
ATOM     20  O   UNL     1      42.565   5.373  13.350  0.00  0.00    +0.000 OA
ATOM     21  H   UNL     1      41.953   6.087  13.601  0.00  0.00    +0.000 HD
ENDBRANCH  19  20
ENDBRANCH  18  19
ENDBRANCH  17  18
BRANCH  17  22
ATOM     22  C   UNL     1      44.381   4.183   9.315  0.00  0.00    +0.000 C 
BRANCH  22  23
ATOM     23  C   UNL     1      45.318   3.309   8.510  0.00  0.00    +0.000 A 
ATOM     24  C   UNL     1      46.189   3.868   7.562  0.00  0.00    +0.000 A 
ATOM     25  C   UNL     1      47.117   3.064   6.896  0.00  0.00    +0.000 A 
ATOM     26  C   UNL     1      47.182   1.699   7.169  0.00  0.00    +0.000 A 
ATOM     27  C   UNL     1      46.312   1.131   8.098  0.00  0.00    +0.000 A 
ATOM     28  C   UNL     1      45.385   1.932   8.765  0.00  0.00    +0.000 A 
ENDBRANCH  22  23
ENDBRANCH  17  22
ENDBRANCH  16  17
ENDBRANCH   4  16
TORSDOF 10
ENDMDL
MODEL 3
REMARK VINA RESULT:    -7.130      1.402      2.012
REMARK INTER + INTRA:         -12.031
REMARK INTER:                 -11.493
REMARK INTRA:                  -0.538
REMARK UNBOUND:                -0.942
REMARK  Name = 
REMARK  11 active torsions:
REMARK  status: ('A' for Active; 'I' for Inactive)
REMARK    1  A    between atoms: C_1  and  C_2
REMARK    2  A    between atoms: C_2  and  O_3
REMARK    3  A    between atoms: C_2  and  C_10
REMARK    4  A    between atoms: O_3  and  C_4
REMARK    5  A    between atoms: C_13  and  C_14
REMARK    6  A    between atoms: C_14  and  N_15
REMARK    7  A    between atoms: N_15  and  C_16
REMARK    8  A    between atoms: N_15  and  C_19
REMARK    9  A    between atoms: C_16  and  C_17
REMARK   10  A    between atoms: C_17  and  O_18
REMARK   11  A    between atoms: C_19  and  C_20
REMARK                            x       y       z     vdW  Elec       q    Type
REMARK                         _______ _______ _______ _____ _____    ______ ____
ROOT
ATOM      1  C   UNL     1      47.195   4.776  14.855  0.00  0.00    +0.000 A 
ATOM      2  C   UNL     1      47.510   5.978  14.222  0.00  0.00    +0.000 A 
ATOM      3  C   UNL     1      46.940   6.258  12.981  0.00  0.00    +0.000 A 
ATOM      4  C   UNL     1      46.063   5.342  12.400  0.00  0.00    +0.000 A 
ATOM      5  C   UNL     1      45.722   4.223  13.150  0.00  0.00    +0.000 A 
ATOM      6  N   UNL     1      46.268   3.921  14.348  0.00  0.00    +0.000 NA
ENDROOT
BRANCH   1   8
ATOM      7  C   UNL     1      48.245   2.861  16.111  0.00  0.00    +0.000 C 
ATOM      8  C   UNL     1      47.959   4.369  16.113  0.00  0.00    +0.000 C 
BRANCH   8   9
ATOM      9  O   UNL     1      47.179   4.744  17.247  0.00  0.00    +0.000 OA
BRANCH   9  10
ATOM     10  C   UNL     1      47.808   5.609  18.113  0.00  0.00    +0.000 A 
ATOM     11  N   UNL     1      47.162   6.065  19.201  0.00  0.00    +0.000 NA
ATOM     12  C   UNL     1      47.850   6.914  19.985  0.00  0.00    +0.000 A 
ATOM     13  C   UNL     1      49.142   7.306  19.728  0.00  0.00    +0.000 A 
ATOM     14  C   UNL     1      49.710   6.768  18.599  0.00  0.00    +0.000 A 
ATOM     15  N   UNL     1      49.068   5.918  17.778  0.00  0.00    +0.000 NA
ENDBRANCH   9  10
ENDBRANCH   8   9
ENDBRANCH   1   8
BRANCH   4  16
ATOM     16  C   UNL     1      45.564   5.508  10.985  0.00  0.00    +0.000 C 
BRANCH  16  17
ATOM     17  N   UNL     1      44.812   4.324  10.485  0.00  0.00    +0.000 NA
BRANCH  17  18
ATOM     18  C   UNL     1      43.437   4.301  11.050  0.00  0.00    +0.000 C 
BRANCH  18  19
ATOM     19  C   UNL     1      42.808   5.682  11.311  0.00  0.00    +0.000 C 
BRANCH  19  20
ATOM     20  O   UNL     1      42.470   5.825  12.690  0.00  0.00    +0.000 OA
ATOM     21  H   UNL     1      42.642   6.751  12.934  0.00  0.00    +0.000 HD
ENDBRANCH  19  20
ENDBRANCH  18  19
ENDBRANCH  17  18
BRANCH  17  22
ATOM     22  C   UNL     1      44.743   4.355   9.008  0.00  0.00    +0.000 C 
BRANCH  22  23
ATOM     23  C   UNL     1      45.607   3.338   8.294  0.00  0.00    +0.000 A 
ATOM     24  C   UNL     1      46.561   3.740   7.348  0.00  0.00    +0.000 A 
ATOM     25  C   UNL     1      47.419   2.803   6.768  0.00  0.00    +0.000 A 
ATOM     26  C   UNL     1      47.329   1.459   7.126  0.00  0.00    +0.000 A 
ATOM     27  C   UNL     1      46.375   1.047   8.053  0.00  0.00    +0.000 A 
ATOM     28  C   UNL     1      45.518   1.981   8.635  0.00  0.00    +0.000 A 
ENDBRANCH  22  23
ENDBRANCH  17  22
ENDBRANCH  16  17
ENDBRANCH   4  16
TORSDOF 10
ENDMDL
MODEL 4
REMARK VINA RESULT:    -6.797      2.007      3.020
REMARK INTER + INTRA:         -11.513
REMARK INTER:                 -10.566
REMARK INTRA:                  -0.947
REMARK UNBOUND:                -0.942
REMARK  Name = 
REMARK  11 active torsions:
REMARK  status: ('A' for Active; 'I' for Inactive)
REMARK    1  A    between atoms: C_1  and  C_2
REMARK    2  A    between atoms: C_2  and  O_3
REMARK    3  A    between atoms: C_2  and  C_10
REMARK    4  A    between atoms: O_3  and  C_4
REMARK    5  A    between atoms: C_13  and  C_14
REMARK    6  A    between atoms: C_14  and  N_15
REMARK    7  A    between atoms: N_15  and  C_16
REMARK    8  A    between atoms: N_15  and  C_19
REMARK    9  A    between atoms: C_16  and  C_17
REMARK   10  A    between atoms: C_17  and  O_18
REMARK   11  A    between atoms: C_19  and  C_20
REMARK                            x       y       z     vdW  Elec       q    Type
REMARK                         _______ _______ _______ _____ _____    ______ ____
ROOT
ATOM      1  C   UNL     1      47.977   6.570  13.806  0.00  0.00    +0.000 A 
ATOM      2  C   UNL     1      47.152   5.458  13.974  0.00  0.00    +0.000 A 
ATOM      3  C   UNL     1      46.205   5.165  12.994  0.00  0.00    +0.000 A 
ATOM      4  C   UNL     1      46.104   5.978  11.864  0.00  0.00    +0.000 A 
ATOM      5  C   UNL     1      47.037   6.998  11.728  0.00  0.00    +0.000 A 
ATOM      6  N   UNL     1      47.957   7.311  12.667  0.00  0.00    +0.000 NA
ENDROOT
BRANCH   1   8
ATOM      7  C   UNL     1      48.753   6.058  16.147  0.00  0.00    +0.000 C 
ATOM      8  C   UNL     1      48.879   7.015  14.955  0.00  0.00    +0.000 C 
BRANCH   8   9
ATOM      9  O   UNL     1      48.508   8.344  15.321  0.00  0.00    +0.000 OA
BRANCH   9  10
ATOM     10  C   UNL     1      49.567   9.175  15.609  0.00  0.00    +0.000 A 
ATOM     11  N   UNL     1      50.780   8.933  15.081  0.00  0.00    +0.000 NA
ATOM     12  C   UNL     1      51.757   9.790  15.426  0.00  0.00    +0.000 A 
ATOM     13  C   UNL     1      51.563  10.867  16.258  0.00  0.00    +0.000 A 
ATOM     14  C   UNL     1      50.282  11.028  16.728  0.00  0.00    +0.000 A 
ATOM     15  N   UNL     1      49.268  10.200  16.418  0.00  0.00    +0.000 NA
ENDBRANCH   9  10
ENDBRANCH   8   9
ENDBRANCH   1   8
BRANCH   4  16
ATOM     16  C   UNL     1      44.981   5.817  10.869  0.00  0.00    +0.000 C 
BRANCH  16  17
ATOM     17  N   UNL     1      44.572   4.399  10.669  0.00  0.00    +0.000 NA
BRANCH  17  18
ATOM     18  C   UNL     1      43.345   4.093  11.451  0.00  0.00    +0.000 C 
BRANCH  18  19
ATOM     19  C   UNL     1      42.536   5.319  11.916  0.00  0.00    +0.000 C 
BRANCH  19  20
ATOM     20  O   UNL     1      42.565   5.427  13.338  0.00  0.00    +0.000 OA
ATOM     21  H   UNL     1      43.193   6.137  13.560  0.00  0.00    +0.000 HD
ENDBRANCH  19  20
ENDBRANCH  18  19
ENDBRANCH  17  18
BRANCH  17  22
ATOM     22  C   UNL     1      44.325   4.140   9.234  0.00  0.00    +0.000 C 
BRANCH  22  23
ATOM     23  C   UNL     1      45.365   3.290   8.538  0.00  0.00    +0.000 A 
ATOM     24  C   UNL     1      45.456   1.913   8.787  0.00  0.00    +0.000 A 
ATOM     25  C   UNL     1      46.355   1.123   8.066  0.00  0.00    +0.000 A 
ATOM     26  C   UNL     1      47.168   1.700   7.093  0.00  0.00    +0.000 A 
ATOM     27  C   UNL     1      47.096   3.070   6.848  0.00  0.00    +0.000 A 
ATOM     28  C   UNL     1      46.199   3.861   7.565  0.00  0.00    +0.000 A 
ENDBRANCH  22  23
ENDBRANCH  17  22
ENDBRANCH  16  17
ENDBRANCH   4  16
TORSDOF 10
ENDMDL
MODEL 5
REMARK VINA RESULT:    -6.692      2.071      8.525
REMARK INTER + INTRA:         -11.350
REMARK INTER:                 -10.308
REMARK INTRA:                  -1.042
REMARK UNBOUND:                -0.942
REMARK  Name = 
REMARK  11 active torsions:
REMARK  status: ('A' for Active; 'I' for Inactive)
REMARK    1  A    between atoms: C_1  and  C_2
REMARK    2  A    between atoms: C_2  and  O_3
REMARK    3  A    between atoms: C_2  and  C_10
REMARK    4  A    between atoms: O_3  and  C_4
REMARK    5  A    between atoms: C_13  and  C_14
REMARK    6  A    between atoms: C_14  and  N_15
REMARK    7  A    between atoms: N_15  and  C_16
REMARK    8  A    between atoms: N_15  and  C_19
REMARK    9  A    between atoms: C_16  and  C_17
REMARK   10  A    between atoms: C_17  and  O_18
REMARK   11  A    between atoms: C_19  and  C_20
REMARK                            x       y       z     vdW  Elec       q    Type
REMARK                         _______ _______ _______ _____ _____    ______ ____
ROOT
ATOM      1  C   UNL     1      45.303   4.972  11.407  0.00  0.00    +0.000 A 
ATOM      2  C   UNL     1      45.809   6.182  10.932  0.00  0.00    +0.000 A 
ATOM      3  C   UNL     1      46.631   6.942  11.762  0.00  0.00    +0.000 A 
ATOM      4  C   UNL     1      46.940   6.481  13.042  0.00  0.00    +0.000 A 
ATOM      5  C   UNL     1      46.481   5.216  13.390  0.00  0.00    +0.000 A 
ATOM      6  N   UNL     1      45.674   4.463  12.611  0.00  0.00    +0.000 NA
ENDROOT
BRANCH   1   8
ATOM      7  C   UNL     1      42.919   4.159  11.350  0.00  0.00    +0.000 C 
ATOM      8  C   UNL     1      44.250   4.228  10.589  0.00  0.00    +0.000 C 
BRANCH   8   9
ATOM      9  O   UNL     1      44.749   2.921  10.306  0.00  0.00    +0.000 OA
BRANCH   9  10
ATOM     10  C   UNL     1      45.396   2.805   9.097  0.00  0.00    +0.000 A 
ATOM     11  N   UNL     1      45.473   3.860   8.267  0.00  0.00    +0.000 NA
ATOM     12  C   UNL     1      46.114   3.652   7.103  0.00  0.00    +0.000 A 
ATOM     13  C   UNL     1      46.680   2.449   6.754  0.00  0.00    +0.000 A 
ATOM     14  C   UNL     1      46.555   1.444   7.683  0.00  0.00    +0.000 A 
ATOM     15  N   UNL     1      45.922   1.596   8.860  0.00  0.00    +0.000 NA
ENDBRANCH   9  10
ENDBRANCH   8   9
ENDBRANCH   1   8
BRANCH   4  16
ATOM     16  C   UNL     1      47.669   7.344  14.043  0.00  0.00    +0.000 C 
BRANCH  16  17
ATOM     17  N   UNL     1      48.839   6.664  14.663  0.00  0.00    +0.000 NA
BRANCH  17  18
ATOM     18  C   UNL     1      50.088   7.426  14.397  0.00  0.00    +0.000 C 
BRANCH  18  19
ATOM     19  C   UNL     1      50.103   8.230  13.083  0.00  0.00    +0.000 C 
BRANCH  19  20
ATOM     20  O   UNL     1      50.639   7.444  12.021  0.00  0.00    +0.000 OA
ATOM     21  H   UNL     1      51.396   6.949  12.382  0.00  0.00    +0.000 HD
ENDBRANCH  19  20
ENDBRANCH  18  19
ENDBRANCH  17  18
BRANCH  17  22
ATOM     22  C   UNL     1      48.636   6.534  16.122  0.00  0.00    +0.000 C 
BRANCH  22  23
ATOM     23  C   UNL     1      48.904   5.161  16.698  0.00  0.00    +0.000 A 
ATOM     24  C   UNL     1      47.960   4.132  16.577  0.00  0.00    +0.000 A 
ATOM     25  C   UNL     1      48.259   2.843  17.026  0.00  0.00    +0.000 A 
ATOM     26  C   UNL     1      49.500   2.574  17.599  0.00  0.00    +0.000 A 
ATOM     27  C   UNL     1      50.440   3.593  17.737  0.00  0.00    +0.000 A 
ATOM     28  C   UNL     1      50.145   4.880  17.289  0.00  0.00    +0.000 A 
ENDBRANCH  22  23
ENDBRANCH  17  22
ENDBRANCH  16  17
ENDBRANCH   4  16
TORSDOF 10
ENDMDL
MODEL 6
REMARK VINA RESULT:    -6.531      2.274      2.957
REMARK INTER + INTRA:         -11.099
REMARK INTER:                 -10.182
REMARK INTRA:                  -0.918
REMARK UNBOUND:                -0.942
REMARK  Name = 
REMARK  11 active torsions:
REMARK  status: ('A' for Active; 'I' for Inactive)
REMARK    1  A    between atoms: C_1  and  C_2
REMARK    2  A    between atoms: C_2  and  O_3
REMARK    3  A    between atoms: C_2  and  C_10
REMARK    4  A    between atoms: O_3  and  C_4
REMARK    5  A    between atoms: C_13  and  C_14
REMARK    6  A    between atoms: C_14  and  N_15
REMARK    7  A    between atoms: N_15  and  C_16
REMARK    8  A    between atoms: N_15  and  C_19
REMARK    9  A    between atoms: C_16  and  C_17
REMARK   10  A    between atoms: C_17  and  O_18
REMARK   11  A    between atoms: C_19  and  C_20
REMARK                            x       y       z     vdW  Elec       q    Type
REMARK                         _______ _______ _______ _____ _____    ______ ____
ROOT
ATOM      1  C   UNL     1      47.812   8.191  13.152  0.00  0.00    +0.000 A 
ATOM      2  C   UNL     1      48.154   7.009  12.496  0.00  0.00    +0.000 A 
ATOM      3  C   UNL     1      47.169   6.316  11.794  0.00  0.00    +0.000 A 
ATOM      4  C   UNL     1      45.867   6.816  11.753  0.00  0.00    +0.000 A 
ATOM      5  C   UNL     1      45.642   8.054  12.342  0.00  0.00    +0.000 A 
ATOM      6  N   UNL     1      46.574   8.741  13.037  0.00  0.00    +0.000 NA
ENDROOT
BRANCH   1   8
ATOM      7  C   UNL     1      48.805  10.378  13.911  0.00  0.00    +0.000 C 
ATOM      8  C   UNL     1      48.826   8.853  14.081  0.00  0.00    +0.000 C 
BRANCH   8   9
ATOM      9  O   UNL     1      50.115   8.319  13.784  0.00  0.00    +0.000 OA
BRANCH   9  10
ATOM     10  C   UNL     1      50.796   7.827  14.874  0.00  0.00    +0.000 A 
ATOM     11  N   UNL     1      51.972   8.369  15.239  0.00  0.00    +0.000 NA
ATOM     12  C   UNL     1      52.571   7.817  16.309  0.00  0.00    +0.000 A 
ATOM     13  C   UNL     1      52.038   6.768  17.019  0.00  0.00    +0.000 A 
ATOM     14  C   UNL     1      50.827   6.303  16.569  0.00  0.00    +0.000 A 
ATOM     15  N   UNL     1      50.186   6.814  15.503  0.00  0.00    +0.000 NA
ENDBRANCH   9  10
ENDBRANCH   8   9
ENDBRANCH   1   8
BRANCH   4  16
ATOM     16  C   UNL     1      44.727   6.017  11.168  0.00  0.00    +0.000 C 
BRANCH  16  17
ATOM     17  N   UNL     1      45.099   4.611  10.849  0.00  0.00    +0.000 NA
BRANCH  17  18
ATOM     18  C   UNL     1      44.687   3.699  11.948  0.00  0.00    +0.000 C 
BRANCH  18  19
ATOM     19  C   UNL     1      43.344   2.975  11.736  0.00  0.00    +0.000 C 
BRANCH  19  20
ATOM     20  O   UNL     1      43.337   1.724  12.421  0.00  0.00    +0.000 OA
ATOM     21  H   UNL     1      42.421   1.395  12.410  0.00  0.00    +0.000 HD
ENDBRANCH  19  20
ENDBRANCH  18  19
ENDBRANCH  17  18
BRANCH  17  22
ATOM     22  C   UNL     1      44.456   4.191   9.585  0.00  0.00    +0.000 C 
BRANCH  22  23
ATOM     23  C   UNL     1      45.327   3.383   8.648  0.00  0.00    +0.000 A 
ATOM     24  C   UNL     1      46.082   4.009   7.646  0.00  0.00    +0.000 A 
ATOM     25  C   UNL     1      46.956   3.264   6.851  0.00  0.00    +0.000 A 
ATOM     26  C   UNL     1      47.082   1.890   7.050  0.00  0.00    +0.000 A 
ATOM     27  C   UNL     1      46.326   1.256   8.033  0.00  0.00    +0.000 A 
ATOM     28  C   UNL     1      45.453   1.998   8.829  0.00  0.00    +0.000 A 
ENDBRANCH  22  23
ENDBRANCH  17  22
ENDBRANCH  16  17
ENDBRANCH   4  16
TORSDOF 10
ENDMDL
MODEL 7
REMARK VINA RESULT:    -6.372      2.401      3.814
REMARK INTER + INTRA:         -10.852
REMARK INTER:                  -9.482
REMARK INTRA:                  -1.371
REMARK UNBOUND:                -0.942
REMARK  Name = 
REMARK  11 active torsions:
REMARK  status: ('A' for Active; 'I' for Inactive)
REMARK    1  A    between atoms: C_1  and  C_2
REMARK    2  A    between atoms: C_2  and  O_3
REMARK    3  A    between atoms: C_2  and  C_10
REMARK    4  A    between atoms: O_3  and  C_4
REMARK    5  A    between atoms: C_13  and  C_14
REMARK    6  A    between atoms: C_14  and  N_15
REMARK    7  A    between atoms: N_15  and  C_16
REMARK    8  A    between atoms: N_15  and  C_19
REMARK    9  A    between atoms: C_16  and  C_17
REMARK   10  A    between atoms: C_17  and  O_18
REMARK   11  A    between atoms: C_19  and  C_20
REMARK                            x       y       z     vdW  Elec       q    Type
REMARK                         _______ _______ _______ _____ _____    ______ ____
ROOT
ATOM      1  C   UNL     1      48.079   4.979  15.874  0.00  0.00    +0.000 A 
ATOM      2  C   UNL     1      47.119   4.317  15.109  0.00  0.00    +0.000 A 
ATOM      3  C   UNL     1      46.712   4.879  13.900  0.00  0.00    +0.000 A 
ATOM      4  C   UNL     1      47.274   6.083  13.473  0.00  0.00    +0.000 A 
ATOM      5  C   UNL     1      48.300   6.615  14.244  0.00  0.00    +0.000 A 
ATOM      6  N   UNL     1      48.705   6.098  15.425  0.00  0.00    +0.000 NA
ENDROOT
BRANCH   1   8
ATOM      7  C   UNL     1      47.421   5.097  18.303  0.00  0.00    +0.000 C 
ATOM      8  C   UNL     1      48.388   4.480  17.284  0.00  0.00    +0.000 C 
BRANCH   8   9
ATOM      9  O   UNL     1      49.741   4.819  17.587  0.00  0.00    +0.000 OA
BRANCH   9  10
ATOM     10  C   UNL     1      50.603   3.747  17.631  0.00  0.00    +0.000 A 
ATOM     11  N   UNL     1      50.243   2.566  17.098  0.00  0.00    +0.000 NA
ATOM     12  C   UNL     1      51.143   1.572  17.197  0.00  0.00    +0.000 A 
ATOM     13  C   UNL     1      52.374   1.721  17.790  0.00  0.00    +0.000 A 
ATOM     14  C   UNL     1      52.644   2.973  18.288  0.00  0.00    +0.000 A 
ATOM     15  N   UNL     1      51.779   4.000  18.220  0.00  0.00    +0.000 NA
ENDBRANCH   9  10
ENDBRANCH   8   9
ENDBRANCH   1   8
BRANCH   4  16
ATOM     16  C   UNL     1      46.741   6.825  12.272  0.00  0.00    +0.000 C 
BRANCH  16  17
ATOM     17  N   UNL     1      45.374   7.376  12.481  0.00  0.00    +0.000 NA
BRANCH  17  18
ATOM     18  C   UNL     1      45.417   8.859  12.581  0.00  0.00    +0.000 C 
BRANCH  18  19
ATOM     19  C   UNL     1      46.790   9.499  12.301  0.00  0.00    +0.000 C 
BRANCH  19  20
ATOM     20  O   UNL     1      47.354  10.019  13.504  0.00  0.00    +0.000 OA
ATOM     21  H   UNL     1      46.970   9.516  14.243  0.00  0.00    +0.000 HD
ENDBRANCH  19  20
ENDBRANCH  18  19
ENDBRANCH  17  18
BRANCH  17  22
ATOM     22  C   UNL     1      44.491   6.978  11.364  0.00  0.00    +0.000 C 
BRANCH  22  23
ATOM     23  C   UNL     1      44.346   5.488  11.147  0.00  0.00    +0.000 A 
ATOM     24  C   UNL     1      43.577   4.703  12.019  0.00  0.00    +0.000 A 
ATOM     25  C   UNL     1      43.372   3.347  11.752  0.00  0.00    +0.000 A 
ATOM     26  C   UNL     1      43.933   2.765  10.617  0.00  0.00    +0.000 A 
ATOM     27  C   UNL     1      44.711   3.532   9.753  0.00  0.00    +0.000 A 
ATOM     28  C   UNL     1      44.916   4.886  10.015  0.00  0.00    +0.000 A 
ENDBRANCH  22  23
ENDBRANCH  17  22
ENDBRANCH  16  17
ENDBRANCH   4  16
TORSDOF 10
ENDMDL
MODEL 8
REMARK VINA RESULT:    -6.172      2.436      3.970
REMARK INTER + INTRA:         -10.541
REMARK INTER:                  -9.744
REMARK INTRA:                  -0.796
REMARK UNBOUND:                -0.942
REMARK  Name = 
REMARK  11 active torsions:
REMARK  status: ('A' for Active; 'I' for Inactive)
REMARK    1  A    between atoms: C_1  and  C_2
REMARK    2  A    between atoms: C_2  and  O_3
REMARK    3  A    between atoms: C_2  and  C_10
REMARK    4  A    between atoms: O_3  and  C_4
REMARK    5  A    between atoms: C_13  and  C_14
REMARK    6  A    between atoms: C_14  and  N_15
REMARK    7  A    between atoms: N_15  and  C_16
REMARK    8  A    between atoms: N_15  and  C_19
REMARK    9  A    between atoms: C_16  and  C_17
REMARK   10  A    between atoms: C_17  and  O_18
REMARK   11  A    between atoms: C_19  and  C_20
REMARK                            x       y       z     vdW  Elec       q    Type
REMARK                         _______ _______ _______ _____ _____    ______ ____
ROOT
ATOM      1  C   UNL     1      47.662   6.868  13.157  0.00  0.00    +0.000 A 
ATOM      2  C   UNL     1      47.655   7.137  11.789  0.00  0.00    +0.000 A 
ATOM      3  C   UNL     1      46.551   6.750  11.030  0.00  0.00    +0.000 A 
ATOM      4  C   UNL     1      45.475   6.112  11.648  0.00  0.00    +0.000 A 
ATOM      5  C   UNL     1      45.521   5.983  13.030  0.00  0.00    +0.000 A 
ATOM      6  N   UNL     1      46.582   6.338  13.789  0.00  0.00    +0.000 NA
ENDROOT
BRANCH   1   8
ATOM      7  C   UNL     1      48.753   6.664  15.419  0.00  0.00    +0.000 C 
ATOM      8  C   UNL     1      48.938   7.105  13.961  0.00  0.00    +0.000 C 
BRANCH   8   9
ATOM      9  O   UNL     1      49.262   8.493  13.881  0.00  0.00    +0.000 OA
BRANCH   9  10
ATOM     10  C   UNL     1      50.563   8.757  13.520  0.00  0.00    +0.000 A 
ATOM     11  N   UNL     1      51.016   8.397  12.306  0.00  0.00    +0.000 NA
ATOM     12  C   UNL     1      52.303   8.686  12.045  0.00  0.00    +0.000 A 
ATOM     13  C   UNL     1      53.134   9.321  12.936  0.00  0.00    +0.000 A 
ATOM     14  C   UNL     1      52.563   9.658  14.140  0.00  0.00    +0.000 A 
ATOM     15  N   UNL     1      51.284   9.390  14.456  0.00  0.00    +0.000 NA
ENDBRANCH   9  10
ENDBRANCH   8   9
ENDBRANCH   1   8
BRANCH   4  16
ATOM     16  C   UNL     1      44.344   5.511  10.850  0.00  0.00    +0.000 C 
BRANCH  16  17
ATOM     17  N   UNL     1      44.637   4.136  10.361  0.00  0.00    +0.000 NA
BRANCH  17  18
ATOM     18  C   UNL     1      43.684   3.158  10.949  0.00  0.00    +0.000 C 
BRANCH  18  19
ATOM     19  C   UNL     1      44.021   2.686  12.376  0.00  0.00    +0.000 C 
BRANCH  19  20
ATOM     20  O   UNL     1      43.367   3.506  13.342  0.00  0.00    +0.000 OA
ATOM     21  H   UNL     1      43.950   3.559  14.119  0.00  0.00    +0.000 HD
ENDBRANCH  19  20
ENDBRANCH  18  19
ENDBRANCH  17  18
BRANCH  17  22
ATOM     22  C   UNL     1      44.546   4.092   8.886  0.00  0.00    +0.000 C 
BRANCH  22  23
ATOM     23  C   UNL     1      45.538   3.179   8.199  0.00  0.00    +0.000 A 
ATOM     24  C   UNL     1      46.481   3.689   7.293  0.00  0.00    +0.000 A 
ATOM     25  C   UNL     1      47.453   2.852   6.741  0.00  0.00    +0.000 A 
ATOM     26  C   UNL     1      47.491   1.502   7.086  0.00  0.00    +0.000 A 
ATOM     27  C   UNL     1      46.550   0.983   7.972  0.00  0.00    +0.000 A 
ATOM     28  C   UNL     1      45.579   1.816   8.527  0.00  0.00    +0.000 A 
ENDBRANCH  22  23
ENDBRANCH  17  22
ENDBRANCH  16  17
ENDBRANCH   4  16
TORSDOF 10
ENDMDL
MODEL 9
REMARK VINA RESULT:    -6.136      2.157      3.276
REMARK INTER + INTRA:         -10.486
REMARK INTER:                  -9.167
REMARK INTRA:                  -1.319
REMARK UNBOUND:                -0.942
REMARK  Name = 
REMARK  11 active torsions:
REMARK  status: ('A' for Active; 'I' for Inactive)
REMARK    1  A    between atoms: C_1  and  C_2
REMARK    2  A    between atoms: C_2  and  O_3
REMARK    3  A    between atoms: C_2  and  C_10
REMARK    4  A    between atoms: O_3  and  C_4
REMARK    5  A    between atoms: C_13  and  C_14
REMARK    6  A    between atoms: C_14  and  N_15
REMARK    7  A    between atoms: N_15  and  C_16
REMARK    8  A    between atoms: N_15  and  C_19
REMARK    9  A    between atoms: C_16  and  C_17
REMARK   10  A    between atoms: C_17  and  O_18
REMARK   11  A    between atoms: C_19  and  C_20
REMARK                            x       y       z     vdW  Elec       q    Type
REMARK                         _______ _______ _______ _____ _____    ______ ____
ROOT
ATOM      1  C   UNL     1      47.815   4.739  16.085  0.00  0.00    +0.000 A 
ATOM      2  C   UNL     1      46.981   4.040  15.214  0.00  0.00    +0.000 A 
ATOM      3  C   UNL     1      46.758   4.549  13.936  0.00  0.00    +0.000 A 
ATOM      4  C   UNL     1      47.377   5.737  13.547  0.00  0.00    +0.000 A 
ATOM      5  C   UNL     1      48.277   6.308  14.439  0.00  0.00    +0.000 A 
ATOM      6  N   UNL     1      48.502   5.842  15.688  0.00  0.00    +0.000 NA
ENDROOT
BRANCH   1   8
ATOM      7  C   UNL     1      47.653   2.796  17.680  0.00  0.00    +0.000 C 
ATOM      8  C   UNL     1      47.912   4.302  17.545  0.00  0.00    +0.000 C 
BRANCH   8   9
ATOM      9  O   UNL     1      46.964   5.057  18.298  0.00  0.00    +0.000 OA
BRANCH   9  10
ATOM     10  C   UNL     1      47.517   5.899  19.236  0.00  0.00    +0.000 A 
ATOM     11  N   UNL     1      48.110   5.394  20.332  0.00  0.00    +0.000 NA
ATOM     12  C   UNL     1      48.613   6.291  21.199  0.00  0.00    +0.000 A 
ATOM     13  C   UNL     1      48.553   7.650  21.003  0.00  0.00    +0.000 A 
ATOM     14  C   UNL     1      47.939   8.055  19.843  0.00  0.00    +0.000 A 
ATOM     15  N   UNL     1      47.416   7.202  18.944  0.00  0.00    +0.000 NA
ENDBRANCH   9  10
ENDBRANCH   8   9
ENDBRANCH   1   8
BRANCH   4  16
ATOM     16  C   UNL     1      47.029   6.426  12.250  0.00  0.00    +0.000 C 
BRANCH  16  17
ATOM     17  N   UNL     1      45.566   6.634  12.070  0.00  0.00    +0.000 NA
BRANCH  17  18
ATOM     18  C   UNL     1      45.171   7.994  12.522  0.00  0.00    +0.000 C 
BRANCH  18  19
ATOM     19  C   UNL     1      46.302   9.039  12.535  0.00  0.00    +0.000 C 
BRANCH  19  20
ATOM     20  O   UNL     1      45.779  10.345  12.301  0.00  0.00    +0.000 OA
ATOM     21  H   UNL     1      46.164  10.934  12.973  0.00  0.00    +0.000 HD
ENDBRANCH  19  20
ENDBRANCH  18  19
ENDBRANCH  17  18
BRANCH  17  22
ATOM     22  C   UNL     1      45.200   6.456  10.648  0.00  0.00    +0.000 C 
BRANCH  22  23
ATOM     23  C   UNL     1      45.077   5.022  10.181  0.00  0.00    +0.000 A 
ATOM     24  C   UNL     1      44.428   4.060  10.970  0.00  0.00    +0.000 A 
ATOM     25  C   UNL     1      44.235   2.764  10.486  0.00  0.00    +0.000 A 
ATOM     26  C   UNL     1      44.688   2.419   9.214  0.00  0.00    +0.000 A 
ATOM     27  C   UNL     1      45.346   3.362   8.428  0.00  0.00    +0.000 A 
ATOM     28  C   UNL     1      45.539   4.657   8.909  0.00  0.00    +0.000 A 
ENDBRANCH  22  23
ENDBRANCH  17  22
ENDBRANCH  16  17
ENDBRANCH   4  16
TORSDOF 10
ENDMDL
