MODEL 1
REMARK VINA RESULT:    -8.349      0.000      0.000
REMARK INTER + INTRA:         -12.869
REMARK INTER:                 -11.766
REMARK INTRA:                  -1.103
REMARK UNBOUND:                -1.103
REMARK  Name = 
REMARK  8 active torsions:
REMARK  status: ('A' for Active; 'I' for Inactive)
REMARK    1  A    between atoms: C_1  and  C_2
REMARK    2  A    between atoms: C_2  and  C_3
REMARK    3  A    between atoms: C_2  and  C_14
REMARK    4  A    between atoms: C_3  and  O_4
REMARK    5  A    between atoms: O_4  and  C_5
REMARK    6  A    between atoms: C_8  and  C_9
REMARK    7  A    between atoms: C_18  and  O_19
REMARK    8  A    between atoms: O_19  and  C_20
REMARK                            x       y       z     vdW  Elec       q    Type
REMARK                         _______ _______ _______ _____ _____    ______ ____
ROOT
ATOM      1  C   UNL     1      43.669   3.719  12.986  0.00  0.00    +0.000 C 
ATOM      2  C   UNL     1      43.946   5.042  12.258  0.00  0.00    +0.000 C 
ENDROOT
BRANCH   2   3
ATOM      3  C   UNL     1      45.394   5.451  12.484  0.00  0.00    +0.000 A 
ATOM      4  C   UNL     1      46.013   6.359  11.617  0.00  0.00    +0.000 A 
ATOM      5  C   UNL     1      47.316   6.800  11.865  0.00  0.00    +0.000 A 
ATOM      6  C   UNL     1      48.018   6.339  12.983  0.00  0.00    +0.000 A 
ATOM      7  C   UNL     1      47.420   5.423  13.841  0.00  0.00    +0.000 A 
ATOM      8  C   UNL     1      46.116   4.983  13.591  0.00  0.00    +0.000 A 
BRANCH   7   9
ATOM      9  O   UNL     1      47.979   4.932  14.990  0.00  0.00    +0.000 OA
BRANCH   9  10
ATOM     10  C   UNL     1      47.170   4.139  15.887  0.00  0.00    +0.000 C 
ATOM     11  C   UNL     1      47.104   4.557  17.369  0.00  0.00    +0.000 C 
ATOM     12  N   UNL     1      47.485   3.197  17.785  0.00  0.00    +0.000 NA
ATOM     13  C   UNL     1      47.867   2.864  16.406  0.00  0.00    +0.000 C 
ATOM     14  H   UNL     1      46.711   2.638  18.144  0.00  0.00    +0.000 HD
ENDBRANCH   9  10
ENDBRANCH   7   9
ENDBRANCH   2   3
BRANCH   2  15
ATOM     15  C   UNL     1      43.573   4.932  10.766  0.00  0.00    +0.000 C 
BRANCH  15  16
ATOM     16  O   UNL     1      43.568   3.552  10.367  0.00  0.00    +0.000 OA
BRANCH  16  17
ATOM     17  C   UNL     1      44.568   3.250   9.464  0.00  0.00    +0.000 A 
ATOM     18  C   UNL     1      45.060   4.303   8.702  0.00  0.00    +0.000 A 
ATOM     19  C   UNL     1      46.031   4.031   7.732  0.00  0.00    +0.000 A 
ATOM     20  C   UNL     1      46.472   2.719   7.558  0.00  0.00    +0.000 A 
ATOM     21  C   UNL     1      45.925   1.739   8.379  0.00  0.00    +0.000 A 
ATOM     22  N   UNL     1      44.990   1.975   9.331  0.00  0.00    +0.000 NA
BRANCH  20  23
ATOM     23  C   UNL     1      47.441   2.300   6.520  0.00  0.00    +0.000 C 
ATOM     24  N   UNL     1      47.497   3.035   5.368  0.00  0.00    +0.000 N 
ATOM     25  O   UNL     1      48.175   1.339   6.686  0.00  0.00    +0.000 OA
ATOM     26  H   UNL     1      47.078   3.948   5.269  0.00  0.00    +0.000 HD
ATOM     27  H   UNL     1      48.220   2.777   4.708  0.00  0.00    +0.000 HD
ENDBRANCH  20  23
ENDBRANCH  16  17
ENDBRANCH  15  16
ENDBRANCH   2  15
TORSDOF 7
ENDMDL
MODEL 2
REMARK VINA RESULT:    -7.156      3.158      4.530
REMARK INTER + INTRA:         -11.187
REMARK INTER:                 -10.197
REMARK INTRA:                  -0.991
REMARK UNBOUND:                -1.103
REMARK  Name = 
REMARK  8 active torsions:
REMARK  status: ('A' for Active; 'I' for Inactive)
REMARK    1  A    between atoms: C_1  and  C_2
REMARK    2  A    between atoms: C_2  and  C_3
REMARK    3  A    between atoms: C_2  and  C_14
REMARK    4  A    between atoms: C_3  and  O_4
REMARK    5  A    between atoms: O_4  and  C_5
REMARK    6  A    between atoms: C_8  and  C_9
REMARK    7  A    between atoms: C_18  and  O_19
REMARK    8  A    between atoms: O_19  and  C_20
REMARK                            x       y       z     vdW  Elec       q    Type
REMARK                         _______ _______ _______ _____ _____    ______ ____
ROOT
ATOM      1  C   UNL     1      44.165   4.164  12.923  0.00  0.00    +0.000 C 
ATOM      2  C   UNL     1      43.874   5.379  12.030  0.00  0.00    +0.000 C 
ENDROOT
BRANCH   2   3
ATOM      3  C   UNL     1      45.039   6.355  12.108  0.00  0.00    +0.000 A 
ATOM      4  C   UNL     1      46.348   5.906  11.899  0.00  0.00    +0.000 A 
ATOM      5  C   UNL     1      47.414   6.810  11.890  0.00  0.00    +0.000 A 
ATOM      6  C   UNL     1      47.186   8.175  12.091  0.00  0.00    +0.000 A 
ATOM      7  C   UNL     1      45.891   8.629  12.318  0.00  0.00    +0.000 A 
ATOM      8  C   UNL     1      44.826   7.723  12.326  0.00  0.00    +0.000 A 
BRANCH   7   9
ATOM      9  O   UNL     1      45.529   9.939  12.481  0.00  0.00    +0.000 OA
BRANCH   9  10
ATOM     10  C   UNL     1      45.464  10.804  11.325  0.00  0.00    +0.000 C 
ATOM     11  C   UNL     1      45.242  12.311  11.555  0.00  0.00    +0.000 C 
ATOM     12  N   UNL     1      44.103  12.301  10.622  0.00  0.00    +0.000 NA
ATOM     13  C   UNL     1      44.085  10.831  10.634  0.00  0.00    +0.000 C 
ATOM     14  H   UNL     1      44.309  12.703   9.708  0.00  0.00    +0.000 HD
ENDBRANCH   9  10
ENDBRANCH   7   9
ENDBRANCH   2   3
BRANCH   2  15
ATOM     15  C   UNL     1      43.551   4.933  10.590  0.00  0.00    +0.000 C 
BRANCH  15  16
ATOM     16  O   UNL     1      43.791   3.524  10.452  0.00  0.00    +0.000 OA
BRANCH  16  17
ATOM     17  C   UNL     1      44.744   3.233   9.496  0.00  0.00    +0.000 A 
ATOM     18  C   UNL     1      45.238   4.303   8.760  0.00  0.00    +0.000 A 
ATOM     19  C   UNL     1      46.159   4.046   7.740  0.00  0.00    +0.000 A 
ATOM     20  C   UNL     1      46.551   2.730   7.491  0.00  0.00    +0.000 A 
ATOM     21  C   UNL     1      46.007   1.731   8.290  0.00  0.00    +0.000 A 
ATOM     22  N   UNL     1      45.119   1.953   9.290  0.00  0.00    +0.000 NA
BRANCH  20  23
ATOM     23  C   UNL     1      47.463   2.329   6.395  0.00  0.00    +0.000 C 
ATOM     24  N   UNL     1      47.391   3.025   5.220  0.00  0.00    +0.000 N 
ATOM     25  O   UNL     1      48.262   1.417   6.535  0.00  0.00    +0.000 OA
ATOM     26  H   UNL     1      46.913   3.909   5.124  0.00  0.00    +0.000 HD
ATOM     27  H   UNL     1      48.077   2.783   4.515  0.00  0.00    +0.000 HD
ENDBRANCH  20  23
ENDBRANCH  16  17
ENDBRANCH  15  16
ENDBRANCH   2  15
TORSDOF 7
ENDMDL
MODEL 3
REMARK VINA RESULT:    -6.954      2.450      3.491
REMARK INTER + INTRA:         -10.903
REMARK INTER:                 -10.102
REMARK INTRA:                  -0.801
REMARK UNBOUND:                -1.103
REMARK  Name = 
REMARK  8 active torsions:
REMARK  status: ('A' for Active; 'I' for Inactive)
REMARK    1  A    between atoms: C_1  and  C_2
REMARK    2  A    between atoms: C_2  and  C_3
REMARK    3  A    between atoms: C_2  and  C_14
REMARK    4  A    between atoms: C_3  and  O_4
REMARK    5  A    between atoms: O_4  and  C_5
REMARK    6  A    between atoms: C_8  and  C_9
REMARK    7  A    between atoms: C_18  and  O_19
REMARK    8  A    between atoms: O_19  and  C_20
REMARK                            x       y       z     vdW  Elec       q    Type
REMARK                         _______ _______ _______ _____ _____    ______ ____
ROOT
ATOM      1  C   UNL     1      44.574   7.420  11.333  0.00  0.00    +0.000 C 
ATOM      2  C   UNL     1      45.155   5.999  11.307  0.00  0.00    +0.000 C 
ENDROOT
BRANCH   2   3
ATOM      3  C   UNL     1      46.023   5.784  12.538  0.00  0.00    +0.000 A 
ATOM      4  C   UNL     1      45.853   4.640  13.328  0.00  0.00    +0.000 A 
ATOM      5  C   UNL     1      46.699   4.397  14.414  0.00  0.00    +0.000 A 
ATOM      6  C   UNL     1      47.726   5.293  14.725  0.00  0.00    +0.000 A 
ATOM      7  C   UNL     1      47.892   6.441  13.959  0.00  0.00    +0.000 A 
ATOM      8  C   UNL     1      47.045   6.683  12.873  0.00  0.00    +0.000 A 
BRANCH   7   9
ATOM      9  O   UNL     1      48.884   7.370  14.129  0.00  0.00    +0.000 OA
BRANCH   9  10
ATOM     10  C   UNL     1      48.628   8.749  13.781  0.00  0.00    +0.000 C 
ATOM     11  C   UNL     1      49.636   9.467  12.864  0.00  0.00    +0.000 C 
ATOM     12  N   UNL     1      49.761  10.565  13.836  0.00  0.00    +0.000 NA
ATOM     13  C   UNL     1      49.069   9.764  14.855  0.00  0.00    +0.000 C 
ATOM     14  H   UNL     1      49.264  11.415  13.573  0.00  0.00    +0.000 HD
ENDBRANCH   9  10
ENDBRANCH   7   9
ENDBRANCH   2   3
BRANCH   2  15
ATOM     15  C   UNL     1      44.033   4.952  11.165  0.00  0.00    +0.000 C 
BRANCH  15  16
ATOM     16  O   UNL     1      43.673   4.811   9.782  0.00  0.00    +0.000 OA
BRANCH  16  17
ATOM     17  C   UNL     1      44.569   4.036   9.070  0.00  0.00    +0.000 A 
ATOM     18  C   UNL     1      44.563   2.672   9.336  0.00  0.00    +0.000 A 
ATOM     19  C   UNL     1      45.495   1.859   8.683  0.00  0.00    +0.000 A 
ATOM     20  C   UNL     1      46.399   2.438   7.791  0.00  0.00    +0.000 A 
ATOM     21  C   UNL     1      46.316   3.811   7.587  0.00  0.00    +0.000 A 
ATOM     22  N   UNL     1      45.418   4.621   8.200  0.00  0.00    +0.000 NA
BRANCH  20  23
ATOM     23  C   UNL     1      47.473   1.692   7.098  0.00  0.00    +0.000 C 
ATOM     24  N   UNL     1      48.437   2.416   6.452  0.00  0.00    +0.000 N 
ATOM     25  O   UNL     1      47.508   0.471   7.108  0.00  0.00    +0.000 OA
ATOM     26  H   UNL     1      48.578   3.406   6.591  0.00  0.00    +0.000 HD
ATOM     27  H   UNL     1      49.202   1.885   6.053  0.00  0.00    +0.000 HD
ENDBRANCH  20  23
ENDBRANCH  16  17
ENDBRANCH  15  16
ENDBRANCH   2  15
TORSDOF 7
ENDMDL
MODEL 4
REMARK VINA RESULT:    -6.784      1.804      8.254
REMARK INTER + INTRA:         -10.663
REMARK INTER:                 -10.176
REMARK INTRA:                  -0.488
REMARK UNBOUND:                -1.103
REMARK  Name = 
REMARK  8 active torsions:
REMARK  status: ('A' for Active; 'I' for Inactive)
REMARK    1  A    between atoms: C_1  and  C_2
REMARK    2  A    between atoms: C_2  and  C_3
REMARK    3  A    between atoms: C_2  and  C_14
REMARK    4  A    between atoms: C_3  and  O_4
REMARK    5  A    between atoms: O_4  and  C_5
REMARK    6  A    between atoms: C_8  and  C_9
REMARK    7  A    between atoms: C_18  and  O_19
REMARK    8  A    between atoms: O_19  and  C_20
REMARK                            x       y       z     vdW  Elec       q    Type
REMARK                         _______ _______ _______ _____ _____    ______ ____
ROOT
ATOM      1  C   UNL     1      46.873   6.727  11.374  0.00  0.00    +0.000 C 
ATOM      2  C   UNL     1      45.578   6.070  11.870  0.00  0.00    +0.000 C 
ENDROOT
BRANCH   2   3
ATOM      3  C   UNL     1      45.205   4.922  10.942  0.00  0.00    +0.000 A 
ATOM      4  C   UNL     1      44.381   3.887  11.400  0.00  0.00    +0.000 A 
ATOM      5  C   UNL     1      43.971   2.872  10.531  0.00  0.00    +0.000 A 
ATOM      6  C   UNL     1      44.378   2.878   9.193  0.00  0.00    +0.000 A 
ATOM      7  C   UNL     1      45.211   3.891   8.733  0.00  0.00    +0.000 A 
ATOM      8  C   UNL     1      45.621   4.906   9.604  0.00  0.00    +0.000 A 
BRANCH   7   9
ATOM      9  O   UNL     1      45.641   4.037   7.442  0.00  0.00    +0.000 OA
BRANCH   9  10
ATOM     10  C   UNL     1      46.895   3.441   7.043  0.00  0.00    +0.000 C 
ATOM     11  C   UNL     1      47.020   2.901   5.605  0.00  0.00    +0.000 C 
ATOM     12  N   UNL     1      47.475   1.599   6.117  0.00  0.00    +0.000 NA
ATOM     13  C   UNL     1      47.062   1.970   7.477  0.00  0.00    +0.000 C 
ATOM     14  H   UNL     1      48.478   1.439   6.020  0.00  0.00    +0.000 HD
ENDBRANCH   9  10
ENDBRANCH   7   9
ENDBRANCH   2   3
BRANCH   2  15
ATOM     15  C   UNL     1      45.713   5.639  13.344  0.00  0.00    +0.000 C 
BRANCH  15  16
ATOM     16  O   UNL     1      46.924   4.888  13.521  0.00  0.00    +0.000 OA
BRANCH  16  17
ATOM     17  C   UNL     1      47.300   4.780  14.846  0.00  0.00    +0.000 A 
ATOM     18  C   UNL     1      48.159   5.757  15.333  0.00  0.00    +0.000 A 
ATOM     19  C   UNL     1      48.614   5.652  16.652  0.00  0.00    +0.000 A 
ATOM     20  C   UNL     1      48.194   4.574  17.434  0.00  0.00    +0.000 A 
ATOM     21  C   UNL     1      47.325   3.656  16.856  0.00  0.00    +0.000 A 
ATOM     22  N   UNL     1      46.863   3.738  15.584  0.00  0.00    +0.000 NA
BRANCH  20  23
ATOM     23  C   UNL     1      48.663   4.320  18.815  0.00  0.00    +0.000 C 
ATOM     24  N   UNL     1      48.325   3.128  19.393  0.00  0.00    +0.000 N 
ATOM     25  O   UNL     1      49.339   5.140  19.418  0.00  0.00    +0.000 OA
ATOM     26  H   UNL     1      47.962   2.341  18.876  0.00  0.00    +0.000 HD
ATOM     27  H   UNL     1      48.722   2.947  20.307  0.00  0.00    +0.000 HD
ENDBRANCH  20  23
ENDBRANCH  16  17
ENDBRANCH  15  16
ENDBRANCH   2  15
TORSDOF 7
ENDMDL
MODEL 5
REMARK VINA RESULT:    -6.695      2.648      3.346
REMARK INTER + INTRA:         -10.538
REMARK INTER:                  -9.800
REMARK INTRA:                  -0.738
REMARK UNBOUND:                -1.103
REMARK  Name = 
REMARK  8 active torsions:
REMARK  status: ('A' for Active; 'I' for Inactive)
REMARK    1  A    between atoms: C_1  and  C_2
REMARK    2  A    between atoms: C_2  and  C_3
REMARK    3  A    between atoms: C_2  and  C_14
REMARK    4  A    between atoms: C_3  and  O_4
REMARK    5  A    between atoms: O_4  and  C_5
REMARK    6  A    between atoms: C_8  and  C_9
REMARK    7  A    between atoms: C_18  and  O_19
REMARK    8  A    between atoms: O_19  and  C_20
REMARK                            x       y       z     vdW  Elec       q    Type
REMARK                         _______ _______ _______ _____ _____    ______ ____
ROOT
ATOM      1  C   UNL     1      44.592   4.525  12.963  0.00  0.00    +0.000 C 
ATOM      2  C   UNL     1      44.024   5.698  12.153  0.00  0.00    +0.000 C 
ENDROOT
BRANCH   2   3
ATOM      3  C   UNL     1      45.034   6.836  12.131  0.00  0.00    +0.000 A 
ATOM      4  C   UNL     1      44.635   8.124  11.758  0.00  0.00    +0.000 A 
ATOM      5  C   UNL     1      45.539   9.189  11.812  0.00  0.00    +0.000 A 
ATOM      6  C   UNL     1      46.854   8.980  12.239  0.00  0.00    +0.000 A 
ATOM      7  C   UNL     1      47.266   7.701  12.594  0.00  0.00    +0.000 A 
ATOM      8  C   UNL     1      46.360   6.637  12.540  0.00  0.00    +0.000 A 
BRANCH   7   9
ATOM      9  O   UNL     1      48.506   7.373  13.071  0.00  0.00    +0.000 OA
BRANCH   9  10
ATOM     10  C   UNL     1      49.604   8.293  12.880  0.00  0.00    +0.000 C 
ATOM     11  C   UNL     1      50.625   7.987  11.767  0.00  0.00    +0.000 C 
ATOM     12  N   UNL     1      51.732   8.110  12.729  0.00  0.00    +0.000 NA
ATOM     13  C   UNL     1      50.784   8.081  13.850  0.00  0.00    +0.000 C 
ATOM     14  H   UNL     1      52.256   8.982  12.654  0.00  0.00    +0.000 HD
ENDBRANCH   9  10
ENDBRANCH   7   9
ENDBRANCH   2   3
BRANCH   2  15
ATOM     15  C   UNL     1      43.600   5.235  10.745  0.00  0.00    +0.000 C 
BRANCH  15  16
ATOM     16  O   UNL     1      43.761   3.813  10.632  0.00  0.00    +0.000 OA
BRANCH  16  17
ATOM     17  C   UNL     1      44.603   3.448   9.600  0.00  0.00    +0.000 A 
ATOM     18  C   UNL     1      44.857   2.090   9.451  0.00  0.00    +0.000 A 
ATOM     19  C   UNL     1      45.752   1.680   8.457  0.00  0.00    +0.000 A 
ATOM     20  C   UNL     1      46.360   2.642   7.650  0.00  0.00    +0.000 A 
ATOM     21  C   UNL     1      46.031   3.975   7.871  0.00  0.00    +0.000 A 
ATOM     22  N   UNL     1      45.162   4.398   8.822  0.00  0.00    +0.000 NA
BRANCH  20  23
ATOM     23  C   UNL     1      47.374   2.335   6.615  0.00  0.00    +0.000 C 
ATOM     24  N   UNL     1      47.355   3.075   5.465  0.00  0.00    +0.000 N 
ATOM     25  O   UNL     1      48.209   1.460   6.783  0.00  0.00    +0.000 OA
ATOM     26  H   UNL     1      46.838   3.936   5.365  0.00  0.00    +0.000 HD
ATOM     27  H   UNL     1      48.105   2.899   4.808  0.00  0.00    +0.000 HD
ENDBRANCH  20  23
ENDBRANCH  16  17
ENDBRANCH  15  16
ENDBRANCH   2  15
TORSDOF 7
ENDMDL
MODEL 6
REMARK VINA RESULT:    -6.503      2.507      8.135
REMARK INTER + INTRA:         -10.267
REMARK INTER:                  -9.814
REMARK INTRA:                  -0.453
REMARK UNBOUND:                -1.103
REMARK  Name = 
REMARK  8 active torsions:
REMARK  status: ('A' for Active; 'I' for Inactive)
REMARK    1  A    between atoms: C_1  and  C_2
REMARK    2  A    between atoms: C_2  and  C_3
REMARK    3  A    between atoms: C_2  and  C_14
REMARK    4  A    between atoms: C_3  and  O_4
REMARK    5  A    between atoms: O_4  and  C_5
REMARK    6  A    between atoms: C_8  and  C_9
REMARK    7  A    between atoms: C_18  and  O_19
REMARK    8  A    between atoms: O_19  and  C_20
REMARK                            x       y       z     vdW  Elec       q    Type
REMARK                         _______ _______ _______ _____ _____    ______ ____
ROOT
ATOM      1  C   UNL     1      47.326   5.996  13.348  0.00  0.00    +0.000 C 
ATOM      2  C   UNL     1      46.404   4.933  13.962  0.00  0.00    +0.000 C 
ENDROOT
BRANCH   2   3
ATOM      3  C   UNL     1      45.242   4.663  13.017  0.00  0.00    +0.000 A 
ATOM      4  C   UNL     1      44.074   5.429  13.101  0.00  0.00    +0.000 A 
ATOM      5  C   UNL     1      43.035   5.239  12.186  0.00  0.00    +0.000 A 
ATOM      6  C   UNL     1      43.150   4.281  11.174  0.00  0.00    +0.000 A 
ATOM      7  C   UNL     1      44.298   3.501  11.093  0.00  0.00    +0.000 A 
ATOM      8  C   UNL     1      45.337   3.692  12.009  0.00  0.00    +0.000 A 
BRANCH   7   9
ATOM      9  O   UNL     1      44.553   2.566  10.126  0.00  0.00    +0.000 OA
BRANCH   9  10
ATOM     10  C   UNL     1      44.659   2.985   8.747  0.00  0.00    +0.000 C 
ATOM     11  C   UNL     1      45.893   2.533   7.942  0.00  0.00    +0.000 C 
ATOM     12  N   UNL     1      46.172   3.926   7.558  0.00  0.00    +0.000 NA
ATOM     13  C   UNL     1      45.216   4.412   8.562  0.00  0.00    +0.000 C 
ATOM     14  H   UNL     1      45.914   4.155   6.598  0.00  0.00    +0.000 HD
ENDBRANCH   9  10
ENDBRANCH   7   9
ENDBRANCH   2   3
BRANCH   2  15
ATOM     15  C   UNL     1      47.200   3.663  14.324  0.00  0.00    +0.000 C 
BRANCH  15  16
ATOM     16  O   UNL     1      47.068   3.391  15.728  0.00  0.00    +0.000 OA
BRANCH  16  17
ATOM     17  C   UNL     1      48.283   3.174  16.350  0.00  0.00    +0.000 A 
ATOM     18  C   UNL     1      48.797   4.224  17.101  0.00  0.00    +0.000 A 
ATOM     19  C   UNL     1      50.052   4.069  17.697  0.00  0.00    +0.000 A 
ATOM     20  C   UNL     1      50.748   2.873  17.519  0.00  0.00    +0.000 A 
ATOM     21  C   UNL     1      50.143   1.879  16.758  0.00  0.00    +0.000 A 
ATOM     22  N   UNL     1      48.924   2.000  16.176  0.00  0.00    +0.000 NA
BRANCH  20  23
ATOM     23  C   UNL     1      52.111   2.621  18.041  0.00  0.00    +0.000 C 
ATOM     24  N   UNL     1      52.778   1.521  17.577  0.00  0.00    +0.000 N 
ATOM     25  O   UNL     1      52.630   3.373  18.851  0.00  0.00    +0.000 OA
ATOM     26  H   UNL     1      52.490   0.998  16.763  0.00  0.00    +0.000 HD
ATOM     27  H   UNL     1      53.735   1.415  17.889  0.00  0.00    +0.000 HD
ENDBRANCH  20  23
ENDBRANCH  16  17
ENDBRANCH  15  16
ENDBRANCH   2  15
TORSDOF 7
ENDMDL
MODEL 7
REMARK VINA RESULT:    -6.264      2.843      4.438
REMARK INTER + INTRA:          -9.931
REMARK INTER:                  -8.871
REMARK INTRA:                  -1.059
REMARK UNBOUND:                -1.103
REMARK  Name = 
REMARK  8 active torsions:
REMARK  status: ('A' for Active; 'I' for Inactive)
REMARK    1  A    between atoms: C_1  and  C_2
REMARK    2  A    between atoms: C_2  and  C_3
REMARK    3  A    between atoms: C_2  and  C_14
REMARK    4  A    between atoms: C_3  and  O_4
REMARK    5  A    between atoms: O_4  and  C_5
REMARK    6  A    between atoms: C_8  and  C_9
REMARK    7  A    between atoms: C_18  and  O_19
REMARK    8  A    between atoms: O_19  and  C_20
REMARK                            x       y       z     vdW  Elec       q    Type
REMARK                         _______ _______ _______ _____ _____    ______ ____
ROOT
ATOM      1  C   UNL     1      49.186   8.049  11.423  0.00  0.00    +0.000 C 
ATOM      2  C   UNL     1      48.098   7.571  12.395  0.00  0.00    +0.000 C 
ENDROOT
BRANCH   2   3
ATOM      3  C   UNL     1      48.649   7.574  13.814  0.00  0.00    +0.000 A 
ATOM      4  C   UNL     1      49.063   8.774  14.405  0.00  0.00    +0.000 A 
ATOM      5  C   UNL     1      49.495   8.796  15.734  0.00  0.00    +0.000 A 
ATOM      6  C   UNL     1      49.519   7.620  16.490  0.00  0.00    +0.000 A 
ATOM      7  C   UNL     1      49.128   6.420  15.907  0.00  0.00    +0.000 A 
ATOM      8  C   UNL     1      48.696   6.399  14.578  0.00  0.00    +0.000 A 
BRANCH   7   9
ATOM      9  O   UNL     1      49.061   5.213  16.549  0.00  0.00    +0.000 OA
BRANCH   9  10
ATOM     10  C   UNL     1      47.843   4.439  16.474  0.00  0.00    +0.000 C 
ATOM     11  C   UNL     1      46.932   4.393  17.717  0.00  0.00    +0.000 C 
ATOM     12  N   UNL     1      46.930   2.922  17.680  0.00  0.00    +0.000 NA
ATOM     13  C   UNL     1      48.039   2.928  16.716  0.00  0.00    +0.000 C 
ATOM     14  H   UNL     1      46.070   2.514  17.316  0.00  0.00    +0.000 HD
ENDBRANCH   9  10
ENDBRANCH   7   9
ENDBRANCH   2   3
BRANCH   2  15
ATOM     15  C   UNL     1      46.818   8.415  12.240  0.00  0.00    +0.000 C 
BRANCH  15  16
ATOM     16  O   UNL     1      45.751   7.825  13.000  0.00  0.00    +0.000 OA
BRANCH  16  17
ATOM     17  C   UNL     1      45.370   6.587  12.519  0.00  0.00    +0.000 A 
ATOM     18  C   UNL     1      45.070   6.509  11.165  0.00  0.00    +0.000 A 
ATOM     19  C   UNL     1      44.621   5.289  10.648  0.00  0.00    +0.000 A 
ATOM     20  C   UNL     1      44.486   4.195  11.503  0.00  0.00    +0.000 A 
ATOM     21  C   UNL     1      44.823   4.374  12.840  0.00  0.00    +0.000 A 
ATOM     22  N   UNL     1      45.268   5.541  13.365  0.00  0.00    +0.000 NA
BRANCH  20  23
ATOM     23  C   UNL     1      43.955   2.877  11.086  0.00  0.00    +0.000 C 
ATOM     24  N   UNL     1      44.597   2.223  10.071  0.00  0.00    +0.000 N 
ATOM     25  O   UNL     1      42.983   2.381  11.634  0.00  0.00    +0.000 OA
ATOM     26  H   UNL     1      45.514   2.479   9.736  0.00  0.00    +0.000 HD
ATOM     27  H   UNL     1      44.263   1.292   9.858  0.00  0.00    +0.000 HD
ENDBRANCH  20  23
ENDBRANCH  16  17
ENDBRANCH  15  16
ENDBRANCH   2  15
TORSDOF 7
ENDMDL
MODEL 8
REMARK VINA RESULT:    -6.170      2.246      2.645
REMARK INTER + INTRA:          -9.798
REMARK INTER:                  -9.168
REMARK INTRA:                  -0.630
REMARK UNBOUND:                -1.103
REMARK  Name = 
REMARK  8 active torsions:
REMARK  status: ('A' for Active; 'I' for Inactive)
REMARK    1  A    between atoms: C_1  and  C_2
REMARK    2  A    between atoms: C_2  and  C_3
REMARK    3  A    between atoms: C_2  and  C_14
REMARK    4  A    between atoms: C_3  and  O_4
REMARK    5  A    between atoms: O_4  and  C_5
REMARK    6  A    between atoms: C_8  and  C_9
REMARK    7  A    between atoms: C_18  and  O_19
REMARK    8  A    between atoms: O_19  and  C_20
REMARK                            x       y       z     vdW  Elec       q    Type
REMARK                         _______ _______ _______ _____ _____    ______ ____
ROOT
ATOM      1  C   UNL     1      45.683   4.312  12.838  0.00  0.00    +0.000 C 
ATOM      2  C   UNL     1      45.347   5.732  12.363  0.00  0.00    +0.000 C 
ENDROOT
BRANCH   2   3
ATOM      3  C   UNL     1      46.593   6.602  12.444  0.00  0.00    +0.000 A 
ATOM      4  C   UNL     1      47.377   6.816  11.304  0.00  0.00    +0.000 A 
ATOM      5  C   UNL     1      48.477   7.677  11.352  0.00  0.00    +0.000 A 
ATOM      6  C   UNL     1      48.808   8.336  12.540  0.00  0.00    +0.000 A 
ATOM      7  C   UNL     1      48.047   8.117  13.683  0.00  0.00    +0.000 A 
ATOM      8  C   UNL     1      46.947   7.255  13.633  0.00  0.00    +0.000 A 
BRANCH   7   9
ATOM      9  O   UNL     1      48.236   8.733  14.890  0.00  0.00    +0.000 OA
BRANCH   9  10
ATOM     10  C   UNL     1      48.756   7.968  16.001  0.00  0.00    +0.000 C 
ATOM     11  C   UNL     1      49.774   8.645  16.938  0.00  0.00    +0.000 C 
ATOM     12  N   UNL     1      50.710   7.524  16.757  0.00  0.00    +0.000 NA
ATOM     13  C   UNL     1      49.915   7.021  15.628  0.00  0.00    +0.000 C 
ATOM     14  H   UNL     1      50.751   6.882  17.549  0.00  0.00    +0.000 HD
ENDBRANCH   9  10
ENDBRANCH   7   9
ENDBRANCH   2   3
BRANCH   2  15
ATOM     15  C   UNL     1      44.717   5.703  10.956  0.00  0.00    +0.000 C 
BRANCH  15  16
ATOM     16  O   UNL     1      44.330   4.360  10.626  0.00  0.00    +0.000 OA
BRANCH  16  17
ATOM     17  C   UNL     1      45.022   3.851   9.544  0.00  0.00    +0.000 A 
ATOM     18  C   UNL     1      45.094   2.467   9.443  0.00  0.00    +0.000 A 
ATOM     19  C   UNL     1      45.837   1.910   8.397  0.00  0.00    +0.000 A 
ATOM     20  C   UNL     1      46.482   2.755   7.493  0.00  0.00    +0.000 A 
ATOM     21  C   UNL     1      46.340   4.126   7.675  0.00  0.00    +0.000 A 
ATOM     22  N   UNL     1      45.619   4.692   8.675  0.00  0.00    +0.000 NA
BRANCH  20  23
ATOM     23  C   UNL     1      47.352   2.282   6.392  0.00  0.00    +0.000 C 
ATOM     24  N   UNL     1      47.359   3.005   5.231  0.00  0.00    +0.000 N 
ATOM     25  O   UNL     1      48.050   1.288   6.515  0.00  0.00    +0.000 OA
ATOM     26  H   UNL     1      46.977   3.936   5.152  0.00  0.00    +0.000 HD
ATOM     27  H   UNL     1      48.019   2.707   4.524  0.00  0.00    +0.000 HD
ENDBRANCH  20  23
ENDBRANCH  16  17
ENDBRANCH  15  16
ENDBRANCH   2  15
TORSDOF 7
ENDMDL
MODEL 9
REMARK VINA RESULT:    -5.952      3.505      7.395
REMARK INTER + INTRA:          -9.490
REMARK INTER:                  -8.450
REMARK INTRA:                  -1.040
REMARK UNBOUND:                -1.103
REMARK  Name = 
REMARK  8 active torsions:
REMARK  status: ('A' for Active; 'I' for Inactive)
REMARK    1  A    between atoms: C_1  and  C_2
REMARK    2  A    between atoms: C_2  and  C_3
REMARK    3  A    between atoms: C_2  and  C_14
REMARK    4  A    between atoms: C_3  and  O_4
REMARK    5  A    between atoms: O_4  and  C_5
REMARK    6  A    between atoms: C_8  and  C_9
REMARK    7  A    between atoms: C_18  and  O_19
REMARK    8  A    between atoms: O_19  and  C_20
REMARK                            x       y       z     vdW  Elec       q    Type
REMARK                         _______ _______ _______ _____ _____    ______ ____
ROOT
ATOM      1  C   UNL     1      49.020   9.572  11.643  0.00  0.00    +0.000 C 
ATOM      2  C   UNL     1      48.264   8.774  12.714  0.00  0.00    +0.000 C 
ENDROOT
BRANCH   2   3
ATOM      3  C   UNL     1      46.829   8.550  12.260  0.00  0.00    +0.000 A 
ATOM      4  C   UNL     1      45.979   9.643  12.050  0.00  0.00    +0.000 A 
ATOM      5  C   UNL     1      44.685   9.450  11.557  0.00  0.00    +0.000 A 
ATOM      6  C   UNL     1      44.223   8.162  11.268  0.00  0.00    +0.000 A 
ATOM      7  C   UNL     1      45.052   7.068  11.492  0.00  0.00    +0.000 A 
ATOM      8  C   UNL     1      46.346   7.263  11.984  0.00  0.00    +0.000 A 
BRANCH   7   9
ATOM      9  O   UNL     1      44.739   5.766  11.208  0.00  0.00    +0.000 OA
BRANCH   9  10
ATOM     10  C   UNL     1      44.443   4.858  12.292  0.00  0.00    +0.000 C 
ATOM     11  C   UNL     1      45.365   3.640  12.494  0.00  0.00    +0.000 C 
ATOM     12  N   UNL     1      44.203   2.737  12.475  0.00  0.00    +0.000 NA
ATOM     13  C   UNL     1      43.349   3.819  11.966  0.00  0.00    +0.000 C 
ATOM     14  H   UNL     1      43.927   2.393  13.395  0.00  0.00    +0.000 HD
ENDBRANCH   9  10
ENDBRANCH   7   9
ENDBRANCH   2   3
BRANCH   2  15
ATOM     15  C   UNL     1      49.007   7.464  13.045  0.00  0.00    +0.000 C 
BRANCH  15  16
ATOM     16  O   UNL     1      49.502   7.514  14.392  0.00  0.00    +0.000 OA
BRANCH  16  17
ATOM     17  C   UNL     1      49.060   6.458  15.165  0.00  0.00    +0.000 A 
ATOM     18  C   UNL     1      47.915   5.801  14.730  0.00  0.00    +0.000 A 
ATOM     19  C   UNL     1      47.398   4.765  15.515  0.00  0.00    +0.000 A 
ATOM     20  C   UNL     1      48.041   4.427  16.706  0.00  0.00    +0.000 A 
ATOM     21  C   UNL     1      49.186   5.138  17.048  0.00  0.00    +0.000 A 
ATOM     22  N   UNL     1      49.713   6.140  16.302  0.00  0.00    +0.000 NA
BRANCH  20  23
ATOM     23  C   UNL     1      47.548   3.399  17.652  0.00  0.00    +0.000 C 
ATOM     24  N   UNL     1      48.320   3.116  18.744  0.00  0.00    +0.000 N 
ATOM     25  O   UNL     1      46.482   2.830  17.473  0.00  0.00    +0.000 OA
ATOM     26  H   UNL     1      49.086   3.697  19.051  0.00  0.00    +0.000 HD
ATOM     27  H   UNL     1      47.924   2.468  19.415  0.00  0.00    +0.000 HD
ENDBRANCH  20  23
ENDBRANCH  16  17
ENDBRANCH  15  16
ENDBRANCH   2  15
TORSDOF 7
ENDMDL
