MODEL 1
REMARK VINA RESULT:    -8.880      0.000      0.000
REMARK INTER + INTRA:         -13.606
REMARK INTER:                 -12.255
REMARK INTRA:                  -1.352
REMARK UNBOUND:                -1.352
REMARK  Name = 
REMARK  7 active torsions:
REMARK  status: ('A' for Active; 'I' for Inactive)
REMARK    1  A    between atoms: C_2  and  C_20
REMARK    2  A    between atoms: N_3  and  C_4
REMARK    3  A    between atoms: C_4  and  C_5
REMARK    4  A    between atoms: C_8  and  C_9
REMARK    5  A    between atoms: C_9  and  C_10
REMARK    6  A    between atoms: C_10  and  O_11
REMARK    7  A    between atoms: C_10  and  C_12
REMARK                            x       y       z     vdW  Elec       q    Type
REMARK                         _______ _______ _______ _____ _____    ______ ____
ROOT
ATOM      1  C   UNL     1      46.721   8.196  13.258  0.00  0.00    +0.000 C 
ENDROOT
BRANCH   1   2
ATOM      2  C   UNL     1      46.091   7.136  12.404  0.00  0.00    +0.000 A 
ATOM      3  C   UNL     1      44.914   6.524  12.842  0.00  0.00    +0.000 A 
ATOM      4  C   UNL     1      44.303   5.536  12.078  0.00  0.00    +0.000 A 
ATOM      5  C   UNL     1      44.850   5.133  10.854  0.00  0.00    +0.000 A 
ATOM      6  C   UNL     1      46.052   5.726  10.433  0.00  0.00    +0.000 A 
ATOM      7  C   UNL     1      46.670   6.715  11.203  0.00  0.00    +0.000 A 
BRANCH   5   8
ATOM      8  C   UNL     1      44.187   4.117   9.946  0.00  0.00    +0.000 C 
BRANCH   8   9
ATOM      9  C   UNL     1      44.873   2.737   9.828  0.00  0.00    +0.000 C 
BRANCH   9  10
ATOM     10  C   UNL     1      45.613   2.485   8.531  0.00  0.00    +0.000 A 
ATOM     11  C   UNL     1      45.778   3.555   7.634  0.00  0.00    +0.000 A 
ATOM     12  C   UNL     1      46.531   3.403   6.470  0.00  0.00    +0.000 A 
ATOM     13  C   UNL     1      47.135   2.182   6.186  0.00  0.00    +0.000 A 
ATOM     14  C   UNL     1      46.981   1.109   7.062  0.00  0.00    +0.000 A 
ATOM     15  C   UNL     1      46.231   1.263   8.232  0.00  0.00    +0.000 A 
ENDBRANCH   9  10
BRANCH   9  16
ATOM     16  O   UNL     1      43.913   1.681   9.944  0.00  0.00    +0.000 OA
ATOM     17  H   UNL     1      43.720   1.367   9.046  0.00  0.00    +0.000 HD
ENDBRANCH   9  16
ENDBRANCH   8   9
ENDBRANCH   5   8
ENDBRANCH   1   2
BRANCH   1  20
ATOM     18  O   UNL     1      49.261   6.909  13.417  0.00  0.00    +0.000 OA
ATOM     19  C   UNL     1      48.527   6.956  14.400  0.00  0.00    +0.000 C 
ATOM     20  N   UNL     1      47.327   7.612  14.421  0.00  0.00    +0.000 N 
ATOM     21  H   UNL     1      46.765   7.600  15.259  0.00  0.00    +0.000 HD
BRANCH  19  22
ATOM     22  C   UNL     1      48.901   6.337  15.671  0.00  0.00    +0.000 A 
ATOM     23  C   UNL     1      49.948   6.834  16.431  0.00  0.00    +0.000 A 
ATOM     24  S   UNL     1      50.173   5.988  17.897  0.00  0.00    +0.000 S 
ATOM     25  C   UNL     1      48.905   4.908  17.538  0.00  0.00    +0.000 A 
ATOM     26  N   UNL     1      48.559   3.912  18.399  0.00  0.00    +0.000 NA
ATOM     27  C   UNL     1      47.594   3.161  17.982  0.00  0.00    +0.000 A 
ATOM     28  N   UNL     1      46.950   3.305  16.782  0.00  0.00    +0.000 N 
ATOM     29  C   UNL     1      47.259   4.299  15.885  0.00  0.00    +0.000 A 
ATOM     30  O   UNL     1      46.634   4.413  14.836  0.00  0.00    +0.000 OA
ATOM     31  C   UNL     1      48.324   5.185  16.316  0.00  0.00    +0.000 A 
ATOM     32  H   UNL     1      46.199   2.688  16.513  0.00  0.00    +0.000 HD
ENDBRANCH  19  22
ENDBRANCH   1  20
TORSDOF 7
ENDMDL
MODEL 2
REMARK VINA RESULT:    -8.178      1.908      2.405
REMARK INTER + INTRA:         -12.637
REMARK INTER:                 -11.547
REMARK INTRA:                  -1.090
REMARK UNBOUND:                -1.352
REMARK  Name = 
REMARK  7 active torsions:
REMARK  status: ('A' for Active; 'I' for Inactive)
REMARK    1  A    between atoms: C_2  and  C_20
REMARK    2  A    between atoms: N_3  and  C_4
REMARK    3  A    between atoms: C_4  and  C_5
REMARK    4  A    between atoms: C_8  and  C_9
REMARK    5  A    between atoms: C_9  and  C_10
REMARK    6  A    between atoms: C_10  and  O_11
REMARK    7  A    between atoms: C_10  and  C_12
REMARK                            x       y       z     vdW  Elec       q    Type
REMARK                         _______ _______ _______ _____ _____    ______ ____
ROOT
ATOM      1  C   UNL     1      47.690   6.997  13.650  0.00  0.00    +0.000 C 
ENDROOT
BRANCH   1   2
ATOM      2  C   UNL     1      46.818   6.184  12.739  0.00  0.00    +0.000 A 
ATOM      3  C   UNL     1      46.587   6.639  11.439  0.00  0.00    +0.000 A 
ATOM      4  C   UNL     1      45.783   5.912  10.568  0.00  0.00    +0.000 A 
ATOM      5  C   UNL     1      45.188   4.711  10.971  0.00  0.00    +0.000 A 
ATOM      6  C   UNL     1      45.395   4.275  12.290  0.00  0.00    +0.000 A 
ATOM      7  C   UNL     1      46.198   5.007  13.169  0.00  0.00    +0.000 A 
BRANCH   5   8
ATOM      8  C   UNL     1      44.364   3.843  10.042  0.00  0.00    +0.000 C 
BRANCH   8   9
ATOM      9  C   UNL     1      44.942   2.452   9.693  0.00  0.00    +0.000 C 
BRANCH   9  10
ATOM     10  C   UNL     1      45.724   2.376   8.399  0.00  0.00    +0.000 A 
ATOM     11  C   UNL     1      45.786   3.521   7.584  0.00  0.00    +0.000 A 
ATOM     12  C   UNL     1      46.568   3.535   6.429  0.00  0.00    +0.000 A 
ATOM     13  C   UNL     1      47.305   2.410   6.074  0.00  0.00    +0.000 A 
ATOM     14  C   UNL     1      47.255   1.265   6.868  0.00  0.00    +0.000 A 
ATOM     15  C   UNL     1      46.476   1.253   8.028  0.00  0.00    +0.000 A 
ENDBRANCH   9  10
BRANCH   9  16
ATOM     16  O   UNL     1      43.896   1.482   9.577  0.00  0.00    +0.000 OA
ATOM     17  H   UNL     1      43.148   1.915   9.134  0.00  0.00    +0.000 HD
ENDBRANCH   9  16
ENDBRANCH   8   9
ENDBRANCH   5   8
ENDBRANCH   1   2
BRANCH   1  20
ATOM     18  O   UNL     1      49.949   6.647  15.354  0.00  0.00    +0.000 OA
ATOM     19  C   UNL     1      48.841   6.245  15.701  0.00  0.00    +0.000 C 
ATOM     20  N   UNL     1      47.701   6.436  14.971  0.00  0.00    +0.000 N 
ATOM     21  H   UNL     1      46.824   6.067  15.308  0.00  0.00    +0.000 HD
BRANCH  19  22
ATOM     22  C   UNL     1      48.637   5.552  16.973  0.00  0.00    +0.000 A 
ATOM     23  C   UNL     1      48.741   4.173  17.064  0.00  0.00    +0.000 A 
ATOM     24  S   UNL     1      48.514   3.587  18.652  0.00  0.00    +0.000 S 
ATOM     25  C   UNL     1      48.229   5.155  19.254  0.00  0.00    +0.000 A 
ATOM     26  N   UNL     1      47.968   5.370  20.573  0.00  0.00    +0.000 NA
ATOM     27  C   UNL     1      47.753   6.607  20.876  0.00  0.00    +0.000 A 
ATOM     28  N   UNL     1      47.764   7.648  19.986  0.00  0.00    +0.000 N 
ATOM     29  C   UNL     1      48.030   7.481  18.649  0.00  0.00    +0.000 A 
ATOM     30  O   UNL     1      48.063   8.444  17.891  0.00  0.00    +0.000 OA
ATOM     31  C   UNL     1      48.300   6.109  18.258  0.00  0.00    +0.000 A 
ATOM     32  H   UNL     1      47.591   8.595  20.285  0.00  0.00    +0.000 HD
ENDBRANCH  19  22
ENDBRANCH   1  20
TORSDOF 7
ENDMDL
MODEL 3
REMARK VINA RESULT:    -8.107      1.042      1.566
REMARK INTER + INTRA:         -12.539
REMARK INTER:                 -12.182
REMARK INTRA:                  -0.358
REMARK UNBOUND:                -1.352
REMARK  Name = 
REMARK  7 active torsions:
REMARK  status: ('A' for Active; 'I' for Inactive)
REMARK    1  A    between atoms: C_2  and  C_20
REMARK    2  A    between atoms: N_3  and  C_4
REMARK    3  A    between atoms: C_4  and  C_5
REMARK    4  A    between atoms: C_8  and  C_9
REMARK    5  A    between atoms: C_9  and  C_10
REMARK    6  A    between atoms: C_10  and  O_11
REMARK    7  A    between atoms: C_10  and  C_12
REMARK                            x       y       z     vdW  Elec       q    Type
REMARK                         _______ _______ _______ _____ _____    ______ ____
ROOT
ATOM      1  C   UNL     1      47.058   7.552  13.199  0.00  0.00    +0.000 C 
ENDROOT
BRANCH   1   2
ATOM      2  C   UNL     1      46.347   6.396  12.562  0.00  0.00    +0.000 A 
ATOM      3  C   UNL     1      46.142   6.404  11.179  0.00  0.00    +0.000 A 
ATOM      4  C   UNL     1      45.485   5.350  10.555  0.00  0.00    +0.000 A 
ATOM      5  C   UNL     1      45.012   4.259  11.293  0.00  0.00    +0.000 A 
ATOM      6  C   UNL     1      45.188   4.270  12.687  0.00  0.00    +0.000 A 
ATOM      7  C   UNL     1      45.844   5.331  13.317  0.00  0.00    +0.000 A 
BRANCH   5   8
ATOM      8  C   UNL     1      44.356   3.052  10.656  0.00  0.00    +0.000 C 
BRANCH   8   9
ATOM      9  C   UNL     1      44.228   3.060   9.115  0.00  0.00    +0.000 C 
BRANCH   9  10
ATOM     10  C   UNL     1      45.483   2.686   8.355  0.00  0.00    +0.000 A 
ATOM     11  C   UNL     1      45.912   1.346   8.386  0.00  0.00    +0.000 A 
ATOM     12  C   UNL     1      47.006   0.928   7.629  0.00  0.00    +0.000 A 
ATOM     13  C   UNL     1      47.685   1.839   6.824  0.00  0.00    +0.000 A 
ATOM     14  C   UNL     1      47.276   3.171   6.782  0.00  0.00    +0.000 A 
ATOM     15  C   UNL     1      46.175   3.589   7.537  0.00  0.00    +0.000 A 
ENDBRANCH   9  10
BRANCH   9  16
ATOM     16  O   UNL     1      43.855   4.359   8.643  0.00  0.00    +0.000 OA
ATOM     17  H   UNL     1      43.108   4.659   9.186  0.00  0.00    +0.000 HD
ENDBRANCH   9  16
ENDBRANCH   8   9
ENDBRANCH   5   8
ENDBRANCH   1   2
BRANCH   1  20
ATOM     18  O   UNL     1      49.685   6.898  14.096  0.00  0.00    +0.000 OA
ATOM     19  C   UNL     1      48.736   6.857  14.874  0.00  0.00    +0.000 C 
ATOM     20  N   UNL     1      47.462   7.221  14.537  0.00  0.00    +0.000 N 
ATOM     21  H   UNL     1      46.723   7.151  15.221  0.00  0.00    +0.000 HD
BRANCH  19  22
ATOM     22  C   UNL     1      48.900   6.449  16.269  0.00  0.00    +0.000 A 
ATOM     23  C   UNL     1      49.445   7.309  17.209  0.00  0.00    +0.000 A 
ATOM     24  S   UNL     1      49.493   6.640  18.780  0.00  0.00    +0.000 S 
ATOM     25  C   UNL     1      48.827   5.168  18.239  0.00  0.00    +0.000 A 
ATOM     26  N   UNL     1      48.595   4.138  19.098  0.00  0.00    +0.000 NA
ATOM     27  C   UNL     1      48.106   3.080  18.540  0.00  0.00    +0.000 A 
ATOM     28  N   UNL     1      47.838   2.952  17.203  0.00  0.00    +0.000 N 
ATOM     29  C   UNL     1      48.048   3.965  16.300  0.00  0.00    +0.000 A 
ATOM     30  O   UNL     1      47.763   3.819  15.116  0.00  0.00    +0.000 OA
ATOM     31  C   UNL     1      48.577   5.185  16.881  0.00  0.00    +0.000 A 
ATOM     32  H   UNL     1      47.453   2.099  16.826  0.00  0.00    +0.000 HD
ENDBRANCH  19  22
ENDBRANCH   1  20
TORSDOF 7
ENDMDL
MODEL 4
REMARK VINA RESULT:    -7.850      2.402      4.006
REMARK INTER + INTRA:         -12.185
REMARK INTER:                 -11.018
REMARK INTRA:                  -1.167
REMARK UNBOUND:                -1.352
REMARK  Name = 
REMARK  7 active torsions:
REMARK  status: ('A' for Active; 'I' for Inactive)
REMARK    1  A    between atoms: C_2  and  C_20
REMARK    2  A    between atoms: N_3  and  C_4
REMARK    3  A    between atoms: C_4  and  C_5
REMARK    4  A    between atoms: C_8  and  C_9
REMARK    5  A    between atoms: C_9  and  C_10
REMARK    6  A    between atoms: C_10  and  O_11
REMARK    7  A    between atoms: C_10  and  C_12
REMARK                            x       y       z     vdW  Elec       q    Type
REMARK                         _______ _______ _______ _____ _____    ______ ____
ROOT
ATOM      1  C   UNL     1      47.022   5.001  14.831  0.00  0.00    +0.000 C 
ENDROOT
BRANCH   1   2
ATOM      2  C   UNL     1      46.244   4.707  13.582  0.00  0.00    +0.000 A 
ATOM      3  C   UNL     1      45.517   5.737  12.979  0.00  0.00    +0.000 A 
ATOM      4  C   UNL     1      44.782   5.502  11.823  0.00  0.00    +0.000 A 
ATOM      5  C   UNL     1      44.753   4.231  11.236  0.00  0.00    +0.000 A 
ATOM      6  C   UNL     1      45.457   3.190  11.864  0.00  0.00    +0.000 A 
ATOM      7  C   UNL     1      46.191   3.424  13.030  0.00  0.00    +0.000 A 
BRANCH   5   8
ATOM      8  C   UNL     1      44.031   3.936   9.937  0.00  0.00    +0.000 C 
BRANCH   8   9
ATOM      9  C   UNL     1      44.770   4.305   8.630  0.00  0.00    +0.000 C 
BRANCH   9  10
ATOM     10  C   UNL     1      45.628   3.209   8.034  0.00  0.00    +0.000 A 
ATOM     11  C   UNL     1      46.556   3.552   7.034  0.00  0.00    +0.000 A 
ATOM     12  C   UNL     1      47.435   2.601   6.518  0.00  0.00    +0.000 A 
ATOM     13  C   UNL     1      47.406   1.294   6.996  0.00  0.00    +0.000 A 
ATOM     14  C   UNL     1      46.492   0.934   7.985  0.00  0.00    +0.000 A 
ATOM     15  C   UNL     1      45.614   1.889   8.506  0.00  0.00    +0.000 A 
ENDBRANCH   9  10
BRANCH   9  16
ATOM     16  O   UNL     1      45.644   5.419   8.837  0.00  0.00    +0.000 OA
ATOM     17  H   UNL     1      46.039   5.316   9.718  0.00  0.00    +0.000 HD
ENDBRANCH   9  16
ENDBRANCH   8   9
ENDBRANCH   5   8
ENDBRANCH   1   2
BRANCH   1  20
ATOM     18  O   UNL     1      49.449   5.767  16.115  0.00  0.00    +0.000 OA
ATOM     19  C   UNL     1      48.837   6.570  15.417  0.00  0.00    +0.000 C 
ATOM     20  N   UNL     1      47.705   6.258  14.716  0.00  0.00    +0.000 N 
ATOM     21  H   UNL     1      47.241   6.970  14.171  0.00  0.00    +0.000 HD
BRANCH  19  22
ATOM     22  C   UNL     1      49.300   7.946  15.237  0.00  0.00    +0.000 A 
ATOM     23  C   UNL     1      49.429   8.806  16.316  0.00  0.00    +0.000 A 
ATOM     24  S   UNL     1      50.033  10.343  15.878  0.00  0.00    +0.000 S 
ATOM     25  C   UNL     1      50.099   9.914  14.231  0.00  0.00    +0.000 A 
ATOM     26  N   UNL     1      50.541  10.792  13.288  0.00  0.00    +0.000 NA
ATOM     27  C   UNL     1      50.515  10.333  12.081  0.00  0.00    +0.000 A 
ATOM     28  N   UNL     1      50.079   9.084  11.726  0.00  0.00    +0.000 N 
ATOM     29  C   UNL     1      49.632   8.163  12.641  0.00  0.00    +0.000 A 
ATOM     30  O   UNL     1      49.282   7.042  12.284  0.00  0.00    +0.000 OA
ATOM     31  C   UNL     1      49.661   8.622  14.017  0.00  0.00    +0.000 A 
ATOM     32  H   UNL     1      50.086   8.781  10.764  0.00  0.00    +0.000 HD
ENDBRANCH  19  22
ENDBRANCH   1  20
TORSDOF 7
ENDMDL
MODEL 5
REMARK VINA RESULT:    -7.749      2.650      3.258
REMARK INTER + INTRA:         -12.045
REMARK INTER:                 -10.833
REMARK INTRA:                  -1.212
REMARK UNBOUND:                -1.352
REMARK  Name = 
REMARK  7 active torsions:
REMARK  status: ('A' for Active; 'I' for Inactive)
REMARK    1  A    between atoms: C_2  and  C_20
REMARK    2  A    between atoms: N_3  and  C_4
REMARK    3  A    between atoms: C_4  and  C_5
REMARK    4  A    between atoms: C_8  and  C_9
REMARK    5  A    between atoms: C_9  and  C_10
REMARK    6  A    between atoms: C_10  and  O_11
REMARK    7  A    between atoms: C_10  and  C_12
REMARK                            x       y       z     vdW  Elec       q    Type
REMARK                         _______ _______ _______ _____ _____    ______ ____
ROOT
ATOM      1  C   UNL     1      47.322   4.317  15.511  0.00  0.00    +0.000 C 
ENDROOT
BRANCH   1   2
ATOM      2  C   UNL     1      46.803   4.563  14.126  0.00  0.00    +0.000 A 
ATOM      3  C   UNL     1      47.056   5.794  13.516  0.00  0.00    +0.000 A 
ATOM      4  C   UNL     1      46.588   6.059  12.234  0.00  0.00    +0.000 A 
ATOM      5  C   UNL     1      45.853   5.101  11.525  0.00  0.00    +0.000 A 
ATOM      6  C   UNL     1      45.571   3.877  12.155  0.00  0.00    +0.000 A 
ATOM      7  C   UNL     1      46.036   3.612  13.446  0.00  0.00    +0.000 A 
BRANCH   5   8
ATOM      8  C   UNL     1      45.384   5.308  10.100  0.00  0.00    +0.000 C 
BRANCH   8   9
ATOM      9  C   UNL     1      44.652   4.123   9.428  0.00  0.00    +0.000 C 
BRANCH   9  10
ATOM     10  C   UNL     1      45.511   3.240   8.548  0.00  0.00    +0.000 A 
ATOM     11  C   UNL     1      46.340   3.852   7.590  0.00  0.00    +0.000 A 
ATOM     12  C   UNL     1      47.220   3.094   6.817  0.00  0.00    +0.000 A 
ATOM     13  C   UNL     1      47.290   1.715   6.993  0.00  0.00    +0.000 A 
ATOM     14  C   UNL     1      46.475   1.091   7.936  0.00  0.00    +0.000 A 
ATOM     15  C   UNL     1      45.597   1.851   8.715  0.00  0.00    +0.000 A 
ENDBRANCH   9  10
BRANCH   9  16
ATOM     16  O   UNL     1      43.586   4.591   8.595  0.00  0.00    +0.000 OA
ATOM     17  H   UNL     1      43.315   3.849   8.030  0.00  0.00    +0.000 HD
ENDBRANCH   9  16
ENDBRANCH   8   9
ENDBRANCH   5   8
ENDBRANCH   1   2
BRANCH   1  20
ATOM     18  O   UNL     1      49.881   4.949  16.599  0.00  0.00    +0.000 OA
ATOM     19  C   UNL     1      48.956   5.752  16.682  0.00  0.00    +0.000 C 
ATOM     20  N   UNL     1      47.723   5.550  16.127  0.00  0.00    +0.000 N 
ATOM     21  H   UNL     1      47.001   6.246  16.244  0.00  0.00    +0.000 HD
BRANCH  19  22
ATOM     22  C   UNL     1      49.112   7.040  17.358  0.00  0.00    +0.000 A 
ATOM     23  C   UNL     1      49.881   8.052  16.807  0.00  0.00    +0.000 A 
ATOM     24  S   UNL     1      49.880   9.481  17.743  0.00  0.00    +0.000 S 
ATOM     25  C   UNL     1      48.886   8.772  18.932  0.00  0.00    +0.000 A 
ATOM     26  N   UNL     1      48.492   9.469  20.032  0.00  0.00    +0.000 NA
ATOM     27  C   UNL     1      47.758   8.794  20.854  0.00  0.00    +0.000 A 
ATOM     28  N   UNL     1      47.390   7.486  20.685  0.00  0.00    +0.000 N 
ATOM     29  C   UNL     1      47.757   6.745  19.589  0.00  0.00    +0.000 A 
ATOM     30  O   UNL     1      47.378   5.585  19.460  0.00  0.00    +0.000 OA
ATOM     31  C   UNL     1      48.566   7.465  18.622  0.00  0.00    +0.000 A 
ATOM     32  H   UNL     1      46.812   7.014  21.363  0.00  0.00    +0.000 HD
ENDBRANCH  19  22
ENDBRANCH   1  20
TORSDOF 7
ENDMDL
MODEL 6
REMARK VINA RESULT:    -7.593      2.392      3.689
REMARK INTER + INTRA:         -11.830
REMARK INTER:                 -10.666
REMARK INTRA:                  -1.164
REMARK UNBOUND:                -1.352
REMARK  Name = 
REMARK  7 active torsions:
REMARK  status: ('A' for Active; 'I' for Inactive)
REMARK    1  A    between atoms: C_2  and  C_20
REMARK    2  A    between atoms: N_3  and  C_4
REMARK    3  A    between atoms: C_4  and  C_5
REMARK    4  A    between atoms: C_8  and  C_9
REMARK    5  A    between atoms: C_9  and  C_10
REMARK    6  A    between atoms: C_10  and  O_11
REMARK    7  A    between atoms: C_10  and  C_12
REMARK                            x       y       z     vdW  Elec       q    Type
REMARK                         _______ _______ _______ _____ _____    ______ ____
ROOT
ATOM      1  C   UNL     1      47.446   4.175  15.647  0.00  0.00    +0.000 C 
ENDROOT
BRANCH   1   2
ATOM      2  C   UNL     1      46.904   4.485  14.283  0.00  0.00    +0.000 A 
ATOM      3  C   UNL     1      46.316   3.459  13.538  0.00  0.00    +0.000 A 
ATOM      4  C   UNL     1      45.805   3.710  12.269  0.00  0.00    +0.000 A 
ATOM      5  C   UNL     1      45.866   4.991  11.710  0.00  0.00    +0.000 A 
ATOM      6  C   UNL     1      46.488   6.012  12.447  0.00  0.00    +0.000 A 
ATOM      7  C   UNL     1      47.008   5.761  13.720  0.00  0.00    +0.000 A 
BRANCH   5   8
ATOM      8  C   UNL     1      45.260   5.336  10.365  0.00  0.00    +0.000 C 
BRANCH   8   9
ATOM      9  C   UNL     1      44.610   4.177   9.576  0.00  0.00    +0.000 C 
BRANCH   9  10
ATOM     10  C   UNL     1      45.548   3.387   8.687  0.00  0.00    +0.000 A 
ATOM     11  C   UNL     1      45.578   1.987   8.819  0.00  0.00    +0.000 A 
ATOM     12  C   UNL     1      46.352   1.204   7.963  0.00  0.00    +0.000 A 
ATOM     13  C   UNL     1      47.104   1.806   6.958  0.00  0.00    +0.000 A 
ATOM     14  C   UNL     1      47.089   3.192   6.813  0.00  0.00    +0.000 A 
ATOM     15  C   UNL     1      46.308   3.977   7.668  0.00  0.00    +0.000 A 
ENDBRANCH   9  10
BRANCH   9  16
ATOM     16  O   UNL     1      43.573   4.664   8.718  0.00  0.00    +0.000 OA
ATOM     17  H   UNL     1      42.784   4.798   9.268  0.00  0.00    +0.000 HD
ENDBRANCH   9  16
ENDBRANCH   8   9
ENDBRANCH   5   8
ENDBRANCH   1   2
BRANCH   1  20
ATOM     18  O   UNL     1      49.861   5.233  16.732  0.00  0.00    +0.000 OA
ATOM     19  C   UNL     1      48.787   5.785  16.954  0.00  0.00    +0.000 C 
ATOM     20  N   UNL     1      47.599   5.378  16.415  0.00  0.00    +0.000 N 
ATOM     21  H   UNL     1      46.748   5.869  16.650  0.00  0.00    +0.000 HD
BRANCH  19  22
ATOM     22  C   UNL     1      48.693   6.976  17.797  0.00  0.00    +0.000 A 
ATOM     23  C   UNL     1      48.710   6.881  19.180  0.00  0.00    +0.000 A 
ATOM     24  S   UNL     1      48.640   8.400  19.958  0.00  0.00    +0.000 S 
ATOM     25  C   UNL     1      48.543   9.224  18.470  0.00  0.00    +0.000 A 
ATOM     26  N   UNL     1      48.462  10.582  18.417  0.00  0.00    +0.000 NA
ATOM     27  C   UNL     1      48.374  11.063  17.221  0.00  0.00    +0.000 A 
ATOM     28  N   UNL     1      48.348  10.315  16.074  0.00  0.00    +0.000 N 
ATOM     29  C   UNL     1      48.434   8.944  16.077  0.00  0.00    +0.000 A 
ATOM     30  O   UNL     1      48.441   8.314  15.025  0.00  0.00    +0.000 OA
ATOM     31  C   UNL     1      48.557   8.354  17.397  0.00  0.00    +0.000 A 
ATOM     32  H   UNL     1      48.280  10.750  15.167  0.00  0.00    +0.000 HD
ENDBRANCH  19  22
ENDBRANCH   1  20
TORSDOF 7
ENDMDL
MODEL 7
REMARK VINA RESULT:    -7.226      3.325      8.043
REMARK INTER + INTRA:         -11.324
REMARK INTER:                  -9.686
REMARK INTRA:                  -1.638
REMARK UNBOUND:                -1.352
REMARK  Name = 
REMARK  7 active torsions:
REMARK  status: ('A' for Active; 'I' for Inactive)
REMARK    1  A    between atoms: C_2  and  C_20
REMARK    2  A    between atoms: N_3  and  C_4
REMARK    3  A    between atoms: C_4  and  C_5
REMARK    4  A    between atoms: C_8  and  C_9
REMARK    5  A    between atoms: C_9  and  C_10
REMARK    6  A    between atoms: C_10  and  O_11
REMARK    7  A    between atoms: C_10  and  C_12
REMARK                            x       y       z     vdW  Elec       q    Type
REMARK                         _______ _______ _______ _____ _____    ______ ____
ROOT
ATOM      1  C   UNL     1      47.552   7.845  12.048  0.00  0.00    +0.000 C 
ENDROOT
BRANCH   1   2
ATOM      2  C   UNL     1      48.079   7.826  13.452  0.00  0.00    +0.000 A 
ATOM      3  C   UNL     1      47.630   8.791  14.358  0.00  0.00    +0.000 A 
ATOM      4  C   UNL     1      48.098   8.805  15.667  0.00  0.00    +0.000 A 
ATOM      5  C   UNL     1      49.029   7.857  16.108  0.00  0.00    +0.000 A 
ATOM      6  C   UNL     1      49.504   6.910  15.185  0.00  0.00    +0.000 A 
ATOM      7  C   UNL     1      49.038   6.898  13.868  0.00  0.00    +0.000 A 
BRANCH   5   8
ATOM      8  C   UNL     1      49.516   7.781  17.540  0.00  0.00    +0.000 C 
BRANCH   8   9
ATOM      9  C   UNL     1      48.746   6.834  18.489  0.00  0.00    +0.000 C 
BRANCH   9  10
ATOM     10  C   UNL     1      48.688   5.384  18.057  0.00  0.00    +0.000 A 
ATOM     11  C   UNL     1      47.444   4.846  17.679  0.00  0.00    +0.000 A 
ATOM     12  C   UNL     1      47.348   3.545  17.185  0.00  0.00    +0.000 A 
ATOM     13  C   UNL     1      48.492   2.764  17.055  0.00  0.00    +0.000 A 
ATOM     14  C   UNL     1      49.733   3.278  17.426  0.00  0.00    +0.000 A 
ATOM     15  C   UNL     1      49.831   4.584  17.916  0.00  0.00    +0.000 A 
ENDBRANCH   9  10
BRANCH   9  16
ATOM     16  O   UNL     1      47.386   7.256  18.634  0.00  0.00    +0.000 OA
ATOM     17  H   UNL     1      47.361   8.212  18.466  0.00  0.00    +0.000 HD
ENDBRANCH   9  16
ENDBRANCH   8   9
ENDBRANCH   5   8
ENDBRANCH   1   2
BRANCH   1  20
ATOM     18  O   UNL     1      44.723   7.601  11.787  0.00  0.00    +0.000 OA
ATOM     19  C   UNL     1      45.440   6.606  11.725  0.00  0.00    +0.000 C 
ATOM     20  N   UNL     1      46.805   6.650  11.773  0.00  0.00    +0.000 N 
ATOM     21  H   UNL     1      47.336   5.792  11.731  0.00  0.00    +0.000 HD
BRANCH  19  22
ATOM     22  C   UNL     1      44.883   5.265  11.547  0.00  0.00    +0.000 A 
ATOM     23  C   UNL     1      44.202   4.628  12.572  0.00  0.00    +0.000 A 
ATOM     24  S   UNL     1      43.598   3.094  12.123  0.00  0.00    +0.000 S 
ATOM     25  C   UNL     1      44.265   3.222  10.561  0.00  0.00    +0.000 A 
ATOM     26  N   UNL     1      44.110   2.229   9.642  0.00  0.00    +0.000 NA
ATOM     27  C   UNL     1      44.688   2.459   8.510  0.00  0.00    +0.000 A 
ATOM     28  N   UNL     1      45.415   3.581   8.213  0.00  0.00    +0.000 N 
ATOM     29  C   UNL     1      45.592   4.611   9.104  0.00  0.00    +0.000 A 
ATOM     30  O   UNL     1      46.223   5.614   8.786  0.00  0.00    +0.000 OA
ATOM     31  C   UNL     1      44.943   4.412  10.386  0.00  0.00    +0.000 A 
ATOM     32  H   UNL     1      45.841   3.704   7.307  0.00  0.00    +0.000 HD
ENDBRANCH  19  22
ENDBRANCH   1  20
TORSDOF 7
ENDMDL
MODEL 8
REMARK VINA RESULT:    -6.969      3.693      5.902
REMARK INTER + INTRA:         -10.969
REMARK INTER:                  -9.872
REMARK INTRA:                  -1.097
REMARK UNBOUND:                -1.352
REMARK  Name = 
REMARK  7 active torsions:
REMARK  status: ('A' for Active; 'I' for Inactive)
REMARK    1  A    between atoms: C_2  and  C_20
REMARK    2  A    between atoms: N_3  and  C_4
REMARK    3  A    between atoms: C_4  and  C_5
REMARK    4  A    between atoms: C_8  and  C_9
REMARK    5  A    between atoms: C_9  and  C_10
REMARK    6  A    between atoms: C_10  and  O_11
REMARK    7  A    between atoms: C_10  and  C_12
REMARK                            x       y       z     vdW  Elec       q    Type
REMARK                         _______ _______ _______ _____ _____    ______ ____
ROOT
ATOM      1  C   UNL     1      48.441   7.223  13.751  0.00  0.00    +0.000 C 
ENDROOT
BRANCH   1   2
ATOM      2  C   UNL     1      47.280   6.373  13.328  0.00  0.00    +0.000 A 
ATOM      3  C   UNL     1      46.211   6.972  12.656  0.00  0.00    +0.000 A 
ATOM      4  C   UNL     1      45.117   6.216  12.250  0.00  0.00    +0.000 A 
ATOM      5  C   UNL     1      45.060   4.841  12.506  0.00  0.00    +0.000 A 
ATOM      6  C   UNL     1      46.119   4.248  13.213  0.00  0.00    +0.000 A 
ATOM      7  C   UNL     1      47.217   5.008  13.626  0.00  0.00    +0.000 A 
BRANCH   5   8
ATOM      8  C   UNL     1      43.928   3.957  12.022  0.00  0.00    +0.000 C 
BRANCH   8   9
ATOM      9  C   UNL     1      43.564   4.048  10.523  0.00  0.00    +0.000 C 
BRANCH   9  10
ATOM     10  C   UNL     1      44.635   3.576   9.562  0.00  0.00    +0.000 A 
ATOM     11  C   UNL     1      44.850   2.193   9.423  0.00  0.00    +0.000 A 
ATOM     12  C   UNL     1      45.758   1.701   8.485  0.00  0.00    +0.000 A 
ATOM     13  C   UNL     1      46.460   2.582   7.668  0.00  0.00    +0.000 A 
ATOM     14  C   UNL     1      46.263   3.956   7.792  0.00  0.00    +0.000 A 
ATOM     15  C   UNL     1      45.349   4.449   8.729  0.00  0.00    +0.000 A 
ENDBRANCH   9  10
BRANCH   9  16
ATOM     16  O   UNL     1      43.271   5.399  10.152  0.00  0.00    +0.000 OA
ATOM     17  H   UNL     1      43.164   5.417   9.187  0.00  0.00    +0.000 HD
ENDBRANCH   9  16
ENDBRANCH   8   9
ENDBRANCH   5   8
ENDBRANCH   1   2
BRANCH   1  20
ATOM     18  O   UNL     1      48.571  10.038  14.181  0.00  0.00    +0.000 OA
ATOM     19  C   UNL     1      48.690   9.577  13.049  0.00  0.00    +0.000 C 
ATOM     20  N   UNL     1      48.706   8.239  12.773  0.00  0.00    +0.000 N 
ATOM     21  H   UNL     1      48.793   7.926  11.817  0.00  0.00    +0.000 HD
BRANCH  19  22
ATOM     22  C   UNL     1      48.871  10.439  11.882  0.00  0.00    +0.000 A 
ATOM     23  C   UNL     1      50.136  10.753  11.409  0.00  0.00    +0.000 A 
ATOM     24  S   UNL     1      50.105  11.730  10.009  0.00  0.00    +0.000 S 
ATOM     25  C   UNL     1      48.402  11.796  10.020  0.00  0.00    +0.000 A 
ATOM     26  N   UNL     1      47.715  12.484   9.067  0.00  0.00    +0.000 NA
ATOM     27  C   UNL     1      46.432  12.461   9.217  0.00  0.00    +0.000 A 
ATOM     28  N   UNL     1      45.772  11.825  10.235  0.00  0.00    +0.000 N 
ATOM     29  C   UNL     1      46.422  11.113  11.214  0.00  0.00    +0.000 A 
ATOM     30  O   UNL     1      45.790  10.530  12.089  0.00  0.00    +0.000 OA
ATOM     31  C   UNL     1      47.867  11.090  11.078  0.00  0.00    +0.000 A 
ATOM     32  H   UNL     1      44.766  11.841  10.297  0.00  0.00    +0.000 HD
ENDBRANCH  19  22
ENDBRANCH   1  20
TORSDOF 7
ENDMDL
MODEL 9
REMARK VINA RESULT:    -6.755      3.750      7.673
REMARK INTER + INTRA:         -10.674
REMARK INTER:                  -8.815
REMARK INTRA:                  -1.859
REMARK UNBOUND:                -1.352
REMARK  Name = 
REMARK  7 active torsions:
REMARK  status: ('A' for Active; 'I' for Inactive)
REMARK    1  A    between atoms: C_2  and  C_20
REMARK    2  A    between atoms: N_3  and  C_4
REMARK    3  A    between atoms: C_4  and  C_5
REMARK    4  A    between atoms: C_8  and  C_9
REMARK    5  A    between atoms: C_9  and  C_10
REMARK    6  A    between atoms: C_10  and  O_11
REMARK    7  A    between atoms: C_10  and  C_12
REMARK                            x       y       z     vdW  Elec       q    Type
REMARK                         _______ _______ _______ _____ _____    ______ ____
ROOT
ATOM      1  C   UNL     1      48.099   8.839  14.219  0.00  0.00    +0.000 C 
ENDROOT
BRANCH   1   2
ATOM      2  C   UNL     1      48.728   8.201  15.422  0.00  0.00    +0.000 A 
ATOM      3  C   UNL     1      48.321   8.606  16.695  0.00  0.00    +0.000 A 
ATOM      4  C   UNL     1      48.884   8.037  17.833  0.00  0.00    +0.000 A 
ATOM      5  C   UNL     1      49.869   7.048  17.729  0.00  0.00    +0.000 A 
ATOM      6  C   UNL     1      50.301   6.668  16.448  0.00  0.00    +0.000 A 
ATOM      7  C   UNL     1      49.740   7.243  15.304  0.00  0.00    +0.000 A 
BRANCH   5   8
ATOM      8  C   UNL     1      50.462   6.343  18.932  0.00  0.00    +0.000 C 
BRANCH   8   9
ATOM      9  C   UNL     1      49.667   5.146  19.500  0.00  0.00    +0.000 C 
BRANCH   9  10
ATOM     10  C   UNL     1      49.110   4.185  18.471  0.00  0.00    +0.000 A 
ATOM     11  C   UNL     1      47.780   4.355  18.045  0.00  0.00    +0.000 A 
ATOM     12  C   UNL     1      47.245   3.559  17.033  0.00  0.00    +0.000 A 
ATOM     13  C   UNL     1      48.032   2.584  16.426  0.00  0.00    +0.000 A 
ATOM     14  C   UNL     1      49.352   2.399  16.835  0.00  0.00    +0.000 A 
ATOM     15  C   UNL     1      49.889   3.202  17.846  0.00  0.00    +0.000 A 
ENDBRANCH   9  10
BRANCH   9  16
ATOM     16  O   UNL     1      48.544   5.599  20.264  0.00  0.00    +0.000 OA
ATOM     17  H   UNL     1      48.890   5.988  21.083  0.00  0.00    +0.000 HD
ENDBRANCH   9  16
ENDBRANCH   8   9
ENDBRANCH   5   8
ENDBRANCH   1   2
BRANCH   1  20
ATOM     18  O   UNL     1      48.089   6.964  12.072  0.00  0.00    +0.000 OA
ATOM     19  C   UNL     1      47.051   7.223  12.675  0.00  0.00    +0.000 C 
ATOM     20  N   UNL     1      46.988   8.057  13.755  0.00  0.00    +0.000 N 
ATOM     21  H   UNL     1      46.099   8.239  14.198  0.00  0.00    +0.000 HD
BRANCH  19  22
ATOM     22  C   UNL     1      45.773   6.613  12.306  0.00  0.00    +0.000 A 
ATOM     23  C   UNL     1      44.740   7.372  11.781  0.00  0.00    +0.000 A 
ATOM     24  S   UNL     1      43.364   6.444  11.378  0.00  0.00    +0.000 S 
ATOM     25  C   UNL     1      44.096   5.009  11.931  0.00  0.00    +0.000 A 
ATOM     26  N   UNL     1      43.447   3.814  11.868  0.00  0.00    +0.000 NA
ATOM     27  C   UNL     1      44.120   2.818  12.343  0.00  0.00    +0.000 A 
ATOM     28  N   UNL     1      45.374   2.906  12.885  0.00  0.00    +0.000 N 
ATOM     29  C   UNL     1      46.071   4.087  12.963  0.00  0.00    +0.000 A 
ATOM     30  O   UNL     1      47.207   4.116  13.425  0.00  0.00    +0.000 OA
ATOM     31  C   UNL     1      45.367   5.235  12.422  0.00  0.00    +0.000 A 
ATOM     32  H   UNL     1      45.850   2.090  13.238  0.00  0.00    +0.000 HD
ENDBRANCH  19  22
ENDBRANCH   1  20
TORSDOF 7
ENDMDL
