MODEL 1
REMARK VINA RESULT:    -7.826      0.000      0.000
REMARK INTER + INTRA:         -12.038
REMARK INTER:                 -11.028
REMARK INTRA:                  -1.010
REMARK UNBOUND:                -1.010
REMARK  Name = 
REMARK  9 active torsions:
REMARK  status: ('A' for Active; 'I' for Inactive)
REMARK    1  A    between atoms: C_1  and  C_2
REMARK    2  A    between atoms: C_6  and  C_7
REMARK    3  A    between atoms: C_7  and  N_8
REMARK    4  A    between atoms: N_8  and  C_9
REMARK    5  A    between atoms: C_9  and  C_10
REMARK    6  A    between atoms: C_13  and  C_14
REMARK    7  A    between atoms: C_14  and  N_15
REMARK    8  A    between atoms: N_15  and  C_16
REMARK    9  A    between atoms: C_17  and  C_19
REMARK                            x       y       z     vdW  Elec       q    Type
REMARK                         _______ _______ _______ _____ _____    ______ ____
ROOT
ATOM      1  C   UNL     1      44.742   5.007  12.926  0.00  0.00    +0.000 A 
ATOM      2  C   UNL     1      44.978   6.320  12.517  0.00  0.00    +0.000 A 
ATOM      3  C   UNL     1      46.169   6.946  12.886  0.00  0.00    +0.000 A 
ATOM      4  C   UNL     1      47.096   6.262  13.672  0.00  0.00    +0.000 A 
ATOM      5  C   UNL     1      46.747   4.976  14.080  0.00  0.00    +0.000 A 
ATOM      6  N   UNL     1      45.613   4.333  13.717  0.00  0.00    +0.000 NA
ENDROOT
BRANCH   1   7
ATOM      7  C   UNL     1      43.501   4.268  12.456  0.00  0.00    +0.000 C 
BRANCH   7   8
ATOM      8  N   UNL     1      43.428   4.082  10.998  0.00  0.00    +0.000 NA
ATOM      9  H   UNL     1      42.445   4.097  10.719  0.00  0.00    +0.000 HD
BRANCH   8  10
ATOM     10  C   UNL     1      43.955   2.770  10.591  0.00  0.00    +0.000 C 
BRANCH  10  16
ATOM     11  C   UNL     1      46.946   0.592   7.409  0.00  0.00    +0.000 C 
ATOM     12  C   UNL     1      46.335   1.870   7.900  0.00  0.00    +0.000 A 
ATOM     13  C   UNL     1      46.649   3.086   7.307  0.00  0.00    +0.000 A 
ATOM     14  C   UNL     1      46.070   4.247   7.810  0.00  0.00    +0.000 A 
ATOM     15  C   UNL     1      45.195   4.160   8.887  0.00  0.00    +0.000 A 
ATOM     16  C   UNL     1      44.931   2.907   9.436  0.00  0.00    +0.000 A 
ATOM     17  N   UNL     1      45.481   1.766   8.949  0.00  0.00    +0.000 NA
ENDBRANCH  10  16
ENDBRANCH   8  10
ENDBRANCH   7   8
ENDBRANCH   1   7
BRANCH   4  18
ATOM     18  C   UNL     1      48.428   6.865  14.049  0.00  0.00    +0.000 C 
BRANCH  18  19
ATOM     19  N   UNL     1      48.530   7.432  15.406  0.00  0.00    +0.000 N 
ATOM     20  C   UNL     1      48.094   8.805  15.627  0.00  0.00    +0.000 C 
ATOM     21  C   UNL     1      49.286   6.694  16.342  0.00  0.00    +0.000 C 
ATOM     22  O   UNL     1      49.788   5.617  16.030  0.00  0.00    +0.000 OA
BRANCH  21  23
ATOM     23  C   UNL     1      49.430   7.196  17.723  0.00  0.00    +0.000 A 
ATOM     24  C   UNL     1      50.287   8.220  18.098  0.00  0.00    +0.000 A 
ATOM     25  S   UNL     1      50.221   8.606  19.758  0.00  0.00    +0.000 S 
ATOM     26  C   UNL     1      48.937   7.521  20.011  0.00  0.00    +0.000 A 
ATOM     27  N   UNL     1      48.331   7.436  21.226  0.00  0.00    +0.000 NA
ATOM     28  C   UNL     1      47.335   6.621  21.266  0.00  0.00    +0.000 A 
ATOM     29  N   UNL     1      46.912   5.860  20.205  0.00  0.00    +0.000 N 
ATOM     30  C   UNL     1      47.574   5.810  18.993  0.00  0.00    +0.000 A 
ATOM     31  O   UNL     1      47.311   4.949  18.164  0.00  0.00    +0.000 OA
ATOM     32  C   UNL     1      48.631   6.804  18.867  0.00  0.00    +0.000 A 
ATOM     33  H   UNL     1      46.166   5.183  20.316  0.00  0.00    +0.000 HD
ENDBRANCH  21  23
ENDBRANCH  18  19
ENDBRANCH   4  18
TORSDOF 7
ENDMDL
MODEL 2
REMARK VINA RESULT:    -7.469      1.860      2.271
REMARK INTER + INTRA:         -11.535
REMARK INTER:                 -10.422
REMARK INTRA:                  -1.113
REMARK UNBOUND:                -1.010
REMARK  Name = 
REMARK  9 active torsions:
REMARK  status: ('A' for Active; 'I' for Inactive)
REMARK    1  A    between atoms: C_1  and  C_2
REMARK    2  A    between atoms: C_6  and  C_7
REMARK    3  A    between atoms: C_7  and  N_8
REMARK    4  A    between atoms: N_8  and  C_9
REMARK    5  A    between atoms: C_9  and  C_10
REMARK    6  A    between atoms: C_13  and  C_14
REMARK    7  A    between atoms: C_14  and  N_15
REMARK    8  A    between atoms: N_15  and  C_16
REMARK    9  A    between atoms: C_17  and  C_19
REMARK                            x       y       z     vdW  Elec       q    Type
REMARK                         _______ _______ _______ _____ _____    ______ ____
ROOT
ATOM      1  C   UNL     1      44.376   5.285  12.437  0.00  0.00    +0.000 A 
ATOM      2  C   UNL     1      45.547   4.920  13.101  0.00  0.00    +0.000 A 
ATOM      3  C   UNL     1      46.583   5.847  13.216  0.00  0.00    +0.000 A 
ATOM      4  C   UNL     1      46.443   7.116  12.653  0.00  0.00    +0.000 A 
ATOM      5  C   UNL     1      45.261   7.368  11.960  0.00  0.00    +0.000 A 
ATOM      6  N   UNL     1      44.229   6.500  11.854  0.00  0.00    +0.000 NA
ENDROOT
BRANCH   1   7
ATOM      7  C   UNL     1      43.195   4.330  12.384  0.00  0.00    +0.000 C 
BRANCH   7   8
ATOM      8  N   UNL     1      42.985   3.707  11.068  0.00  0.00    +0.000 NA
ATOM      9  H   UNL     1      42.036   3.328  11.037  0.00  0.00    +0.000 HD
BRANCH   8  10
ATOM     10  C   UNL     1      43.893   2.568  10.855  0.00  0.00    +0.000 C 
BRANCH  10  16
ATOM     11  C   UNL     1      46.915   0.697   7.511  0.00  0.00    +0.000 C 
ATOM     12  C   UNL     1      46.206   1.908   8.038  0.00  0.00    +0.000 A 
ATOM     13  C   UNL     1      46.365   3.149   7.434  0.00  0.00    +0.000 A 
ATOM     14  C   UNL     1      45.700   4.246   7.971  0.00  0.00    +0.000 A 
ATOM     15  C   UNL     1      44.896   4.073   9.093  0.00  0.00    +0.000 A 
ATOM     16  C   UNL     1      44.788   2.802   9.650  0.00  0.00    +0.000 A 
ATOM     17  N   UNL     1      45.423   1.721   9.130  0.00  0.00    +0.000 NA
ENDBRANCH  10  16
ENDBRANCH   8  10
ENDBRANCH   7   8
ENDBRANCH   1   7
BRANCH   4  18
ATOM     18  C   UNL     1      47.504   8.180  12.801  0.00  0.00    +0.000 C 
BRANCH  18  19
ATOM     19  N   UNL     1      48.294   8.148  14.045  0.00  0.00    +0.000 N 
ATOM     20  C   UNL     1      47.900   9.012  15.151  0.00  0.00    +0.000 C 
ATOM     21  C   UNL     1      49.534   7.476  13.986  0.00  0.00    +0.000 C 
ATOM     22  O   UNL     1      49.895   6.919  12.952  0.00  0.00    +0.000 OA
BRANCH  21  23
ATOM     23  C   UNL     1      50.382   7.399  15.192  0.00  0.00    +0.000 A 
ATOM     24  C   UNL     1      51.476   8.215  15.435  0.00  0.00    +0.000 A 
ATOM     25  S   UNL     1      52.249   7.915  16.925  0.00  0.00    +0.000 S 
ATOM     26  C   UNL     1      51.060   6.784  17.372  0.00  0.00    +0.000 A 
ATOM     27  N   UNL     1      51.076   6.211  18.605  0.00  0.00    +0.000 NA
ATOM     28  C   UNL     1      50.087   5.420  18.836  0.00  0.00    +0.000 A 
ATOM     29  N   UNL     1      49.101   5.127  17.929  0.00  0.00    +0.000 N 
ATOM     30  C   UNL     1      49.111   5.575  16.622  0.00  0.00    +0.000 A 
ATOM     31  O   UNL     1      48.353   5.103  15.785  0.00  0.00    +0.000 OA
ATOM     32  C   UNL     1      50.145   6.567  16.356  0.00  0.00    +0.000 A 
ATOM     33  H   UNL     1      48.385   4.441  18.143  0.00  0.00    +0.000 HD
ENDBRANCH  21  23
ENDBRANCH  18  19
ENDBRANCH   4  18
TORSDOF 7
ENDMDL
MODEL 3
REMARK VINA RESULT:    -7.166      1.523      2.259
REMARK INTER + INTRA:         -11.109
REMARK INTER:                 -10.130
REMARK INTRA:                  -0.979
REMARK UNBOUND:                -1.010
REMARK  Name = 
REMARK  9 active torsions:
REMARK  status: ('A' for Active; 'I' for Inactive)
REMARK    1  A    between atoms: C_1  and  C_2
REMARK    2  A    between atoms: C_6  and  C_7
REMARK    3  A    between atoms: C_7  and  N_8
REMARK    4  A    between atoms: N_8  and  C_9
REMARK    5  A    between atoms: C_9  and  C_10
REMARK    6  A    between atoms: C_13  and  C_14
REMARK    7  A    between atoms: C_14  and  N_15
REMARK    8  A    between atoms: N_15  and  C_16
REMARK    9  A    between atoms: C_17  and  C_19
REMARK                            x       y       z     vdW  Elec       q    Type
REMARK                         _______ _______ _______ _____ _____    ______ ____
ROOT
ATOM      1  C   UNL     1      45.009   5.882  12.028  0.00  0.00    +0.000 A 
ATOM      2  C   UNL     1      45.793   4.913  12.654  0.00  0.00    +0.000 A 
ATOM      3  C   UNL     1      46.985   5.293  13.271  0.00  0.00    +0.000 A 
ATOM      4  C   UNL     1      47.387   6.629  13.239  0.00  0.00    +0.000 A 
ATOM      5  C   UNL     1      46.567   7.514  12.541  0.00  0.00    +0.000 A 
ATOM      6  N   UNL     1      45.393   7.180  11.956  0.00  0.00    +0.000 NA
ENDROOT
BRANCH   1   7
ATOM      7  C   UNL     1      43.660   5.513  11.437  0.00  0.00    +0.000 C 
BRANCH   7   8
ATOM      8  N   UNL     1      43.729   4.987  10.064  0.00  0.00    +0.000 NA
ATOM      9  H   UNL     1      42.806   5.081   9.635  0.00  0.00    +0.000 HD
BRANCH   8  10
ATOM     10  C   UNL     1      44.049   3.551  10.048  0.00  0.00    +0.000 C 
BRANCH  10  16
ATOM     11  C   UNL     1      46.713   0.192   7.715  0.00  0.00    +0.000 C 
ATOM     12  C   UNL     1      46.369   1.642   7.881  0.00  0.00    +0.000 A 
ATOM     13  C   UNL     1      46.994   2.617   7.114  0.00  0.00    +0.000 A 
ATOM     14  C   UNL     1      46.654   3.951   7.317  0.00  0.00    +0.000 A 
ATOM     15  C   UNL     1      45.700   4.271   8.278  0.00  0.00    +0.000 A 
ATOM     16  C   UNL     1      45.119   3.242   9.015  0.00  0.00    +0.000 A 
ATOM     17  N   UNL     1      45.434   1.937   8.819  0.00  0.00    +0.000 NA
ENDBRANCH  10  16
ENDBRANCH   8  10
ENDBRANCH   7   8
ENDBRANCH   1   7
BRANCH   4  18
ATOM     18  C   UNL     1      48.632   7.109  13.942  0.00  0.00    +0.000 C 
BRANCH  18  19
ATOM     19  N   UNL     1      48.478   7.496  15.356  0.00  0.00    +0.000 N 
ATOM     20  C   UNL     1      48.217   8.894  15.677  0.00  0.00    +0.000 C 
ATOM     21  C   UNL     1      48.853   6.534  16.318  0.00  0.00    +0.000 C 
ATOM     22  O   UNL     1      49.246   5.422  15.970  0.00  0.00    +0.000 OA
BRANCH  21  23
ATOM     23  C   UNL     1      48.723   6.847  17.755  0.00  0.00    +0.000 A 
ATOM     24  C   UNL     1      47.650   6.465  18.546  0.00  0.00    +0.000 A 
ATOM     25  S   UNL     1      47.786   6.945  20.177  0.00  0.00    +0.000 S 
ATOM     26  C   UNL     1      49.354   7.549  19.922  0.00  0.00    +0.000 A 
ATOM     27  N   UNL     1      50.091   8.025  20.961  0.00  0.00    +0.000 NA
ATOM     28  C   UNL     1      51.282   8.396  20.641  0.00  0.00    +0.000 A 
ATOM     29  N   UNL     1      51.788   8.363  19.367  0.00  0.00    +0.000 N 
ATOM     30  C   UNL     1      51.038   8.017  18.259  0.00  0.00    +0.000 A 
ATOM     31  O   UNL     1      51.450   8.229  17.125  0.00  0.00    +0.000 OA
ATOM     32  C   UNL     1      49.727   7.477  18.590  0.00  0.00    +0.000 A 
ATOM     33  H   UNL     1      52.709   8.735  19.163  0.00  0.00    +0.000 HD
ENDBRANCH  21  23
ENDBRANCH  18  19
ENDBRANCH   4  18
TORSDOF 7
ENDMDL
MODEL 4
REMARK VINA RESULT:    -6.989      3.566      4.352
REMARK INTER + INTRA:         -10.859
REMARK INTER:                  -9.981
REMARK INTRA:                  -0.878
REMARK UNBOUND:                -1.010
REMARK  Name = 
REMARK  9 active torsions:
REMARK  status: ('A' for Active; 'I' for Inactive)
REMARK    1  A    between atoms: C_1  and  C_2
REMARK    2  A    between atoms: C_6  and  C_7
REMARK    3  A    between atoms: C_7  and  N_8
REMARK    4  A    between atoms: N_8  and  C_9
REMARK    5  A    between atoms: C_9  and  C_10
REMARK    6  A    between atoms: C_13  and  C_14
REMARK    7  A    between atoms: C_14  and  N_15
REMARK    8  A    between atoms: N_15  and  C_16
REMARK    9  A    between atoms: C_17  and  C_19
REMARK                            x       y       z     vdW  Elec       q    Type
REMARK                         _______ _______ _______ _____ _____    ______ ____
ROOT
ATOM      1  C   UNL     1      47.675   6.970  13.431  0.00  0.00    +0.000 A 
ATOM      2  C   UNL     1      47.935   8.249  13.923  0.00  0.00    +0.000 A 
ATOM      3  C   UNL     1      48.524   8.390  15.180  0.00  0.00    +0.000 A 
ATOM      4  C   UNL     1      48.827   7.256  15.934  0.00  0.00    +0.000 A 
ATOM      5  C   UNL     1      48.477   6.025  15.384  0.00  0.00    +0.000 A 
ATOM      6  N   UNL     1      47.931   5.855  14.158  0.00  0.00    +0.000 NA
ENDROOT
BRANCH   1   7
ATOM      7  C   UNL     1      47.127   6.785  12.026  0.00  0.00    +0.000 C 
BRANCH   7   8
ATOM      8  N   UNL     1      45.896   5.982  11.961  0.00  0.00    +0.000 NA
ATOM      9  H   UNL     1      46.150   4.994  12.029  0.00  0.00    +0.000 HD
BRANCH   8  10
ATOM     10  C   UNL     1      45.208   6.146  10.671  0.00  0.00    +0.000 C 
BRANCH  10  16
ATOM     11  C   UNL     1      46.492   3.600   6.710  0.00  0.00    +0.000 C 
ATOM     12  C   UNL     1      45.792   3.610   8.036  0.00  0.00    +0.000 A 
ATOM     13  C   UNL     1      45.159   2.470   8.518  0.00  0.00    +0.000 A 
ATOM     14  C   UNL     1      44.508   2.534   9.745  0.00  0.00    +0.000 A 
ATOM     15  C   UNL     1      44.508   3.730  10.455  0.00  0.00    +0.000 A 
ATOM     16  C   UNL     1      45.158   4.834   9.909  0.00  0.00    +0.000 A 
ATOM     17  N   UNL     1      45.806   4.782   8.717  0.00  0.00    +0.000 NA
ENDBRANCH  10  16
ENDBRANCH   8  10
ENDBRANCH   7   8
ENDBRANCH   1   7
BRANCH   4  18
ATOM     18  C   UNL     1      49.521   7.345  17.271  0.00  0.00    +0.000 C 
BRANCH  18  19
ATOM     19  N   UNL     1      50.712   6.495  17.448  0.00  0.00    +0.000 N 
ATOM     20  C   UNL     1      51.821   6.636  16.512  0.00  0.00    +0.000 C 
ATOM     21  C   UNL     1      50.590   5.419  18.353  0.00  0.00    +0.000 C 
ATOM     22  O   UNL     1      49.547   5.246  18.981  0.00  0.00    +0.000 OA
BRANCH  21  23
ATOM     23  C   UNL     1      51.741   4.525  18.586  0.00  0.00    +0.000 A 
ATOM     24  C   UNL     1      52.831   4.843  19.382  0.00  0.00    +0.000 A 
ATOM     25  S   UNL     1      53.998   3.604  19.488  0.00  0.00    +0.000 S 
ATOM     26  C   UNL     1      53.019   2.536  18.597  0.00  0.00    +0.000 A 
ATOM     27  N   UNL     1      53.398   1.244  18.406  0.00  0.00    +0.000 NA
ATOM     28  C   UNL     1      52.539   0.529  17.766  0.00  0.00    +0.000 A 
ATOM     29  N   UNL     1      51.350   1.002  17.273  0.00  0.00    +0.000 N 
ATOM     30  C   UNL     1      50.981   2.333  17.322  0.00  0.00    +0.000 A 
ATOM     31  O   UNL     1      50.036   2.752  16.666  0.00  0.00    +0.000 OA
ATOM     32  C   UNL     1      51.865   3.151  18.141  0.00  0.00    +0.000 A 
ATOM     33  H   UNL     1      50.746   0.408  16.715  0.00  0.00    +0.000 HD
ENDBRANCH  21  23
ENDBRANCH  18  19
ENDBRANCH   4  18
TORSDOF 7
ENDMDL
MODEL 5
REMARK VINA RESULT:    -6.590      2.975      3.586
REMARK INTER + INTRA:         -10.297
REMARK INTER:                  -9.178
REMARK INTRA:                  -1.119
REMARK UNBOUND:                -1.010
REMARK  Name = 
REMARK  9 active torsions:
REMARK  status: ('A' for Active; 'I' for Inactive)
REMARK    1  A    between atoms: C_1  and  C_2
REMARK    2  A    between atoms: C_6  and  C_7
REMARK    3  A    between atoms: C_7  and  N_8
REMARK    4  A    between atoms: N_8  and  C_9
REMARK    5  A    between atoms: C_9  and  C_10
REMARK    6  A    between atoms: C_13  and  C_14
REMARK    7  A    between atoms: C_14  and  N_15
REMARK    8  A    between atoms: N_15  and  C_16
REMARK    9  A    between atoms: C_17  and  C_19
REMARK                            x       y       z     vdW  Elec       q    Type
REMARK                         _______ _______ _______ _____ _____    ______ ____
ROOT
ATOM      1  C   UNL     1      44.879   6.386  11.729  0.00  0.00    +0.000 A 
ATOM      2  C   UNL     1      46.146   5.821  11.869  0.00  0.00    +0.000 A 
ATOM      3  C   UNL     1      47.217   6.632  12.244  0.00  0.00    +0.000 A 
ATOM      4  C   UNL     1      47.013   7.996  12.455  0.00  0.00    +0.000 A 
ATOM      5  C   UNL     1      45.725   8.479  12.235  0.00  0.00    +0.000 A 
ATOM      6  N   UNL     1      44.661   7.713  11.897  0.00  0.00    +0.000 NA
ENDROOT
BRANCH   1   7
ATOM      7  C   UNL     1      43.678   5.509  11.420  0.00  0.00    +0.000 C 
BRANCH   7   8
ATOM      8  N   UNL     1      43.692   4.922  10.071  0.00  0.00    +0.000 NA
ATOM      9  H   UNL     1      42.742   4.950   9.696  0.00  0.00    +0.000 HD
BRANCH   8  10
ATOM     10  C   UNL     1      44.087   3.505  10.099  0.00  0.00    +0.000 C 
BRANCH  10  16
ATOM     11  C   UNL     1      46.733   0.176   7.704  0.00  0.00    +0.000 C 
ATOM     12  C   UNL     1      46.370   1.621   7.873  0.00  0.00    +0.000 A 
ATOM     13  C   UNL     1      46.954   2.601   7.080  0.00  0.00    +0.000 A 
ATOM     14  C   UNL     1      46.598   3.930   7.286  0.00  0.00    +0.000 A 
ATOM     15  C   UNL     1      45.670   4.241   8.274  0.00  0.00    +0.000 A 
ATOM     16  C   UNL     1      45.129   3.207   9.035  0.00  0.00    +0.000 A 
ATOM     17  N   UNL     1      45.460   1.906   8.837  0.00  0.00    +0.000 NA
ENDBRANCH  10  16
ENDBRANCH   8  10
ENDBRANCH   7   8
ENDBRANCH   1   7
BRANCH   4  18
ATOM     18  C   UNL     1      48.120   8.910  12.923  0.00  0.00    +0.000 C 
BRANCH  18  19
ATOM     19  N   UNL     1      48.685   8.624  14.254  0.00  0.00    +0.000 N 
ATOM     20  C   UNL     1      48.030   9.184  15.430  0.00  0.00    +0.000 C 
ATOM     21  C   UNL     1      49.973   8.047  14.281  0.00  0.00    +0.000 C 
ATOM     22  O   UNL     1      50.555   7.767  13.235  0.00  0.00    +0.000 OA
BRANCH  21  23
ATOM     23  C   UNL     1      50.605   7.729  15.577  0.00  0.00    +0.000 A 
ATOM     24  C   UNL     1      50.486   6.510  16.227  0.00  0.00    +0.000 A 
ATOM     25  S   UNL     1      51.348   6.422  17.697  0.00  0.00    +0.000 S 
ATOM     26  C   UNL     1      52.035   7.956  17.444  0.00  0.00    +0.000 A 
ATOM     27  N   UNL     1      52.966   8.449  18.305  0.00  0.00    +0.000 NA
ATOM     28  C   UNL     1      53.449   9.593  17.966  0.00  0.00    +0.000 A 
ATOM     29  N   UNL     1      53.059  10.302  16.858  0.00  0.00    +0.000 N 
ATOM     30  C   UNL     1      52.026   9.909  16.028  0.00  0.00    +0.000 A 
ATOM     31  O   UNL     1      51.553  10.678  15.201  0.00  0.00    +0.000 OA
ATOM     32  C   UNL     1      51.536   8.567  16.307  0.00  0.00    +0.000 A 
ATOM     33  H   UNL     1      53.425  11.231  16.681  0.00  0.00    +0.000 HD
ENDBRANCH  21  23
ENDBRANCH  18  19
ENDBRANCH   4  18
TORSDOF 7
ENDMDL
MODEL 6
REMARK VINA RESULT:    -6.530      2.005      2.622
REMARK INTER + INTRA:         -10.212
REMARK INTER:                  -9.332
REMARK INTRA:                  -0.880
REMARK UNBOUND:                -1.010
REMARK  Name = 
REMARK  9 active torsions:
REMARK  status: ('A' for Active; 'I' for Inactive)
REMARK    1  A    between atoms: C_1  and  C_2
REMARK    2  A    between atoms: C_6  and  C_7
REMARK    3  A    between atoms: C_7  and  N_8
REMARK    4  A    between atoms: N_8  and  C_9
REMARK    5  A    between atoms: C_9  and  C_10
REMARK    6  A    between atoms: C_13  and  C_14
REMARK    7  A    between atoms: C_14  and  N_15
REMARK    8  A    between atoms: N_15  and  C_16
REMARK    9  A    between atoms: C_17  and  C_19
REMARK                            x       y       z     vdW  Elec       q    Type
REMARK                         _______ _______ _______ _____ _____    ______ ____
ROOT
ATOM      1  C   UNL     1      45.736   7.037  12.396  0.00  0.00    +0.000 A 
ATOM      2  C   UNL     1      46.662   8.080  12.371  0.00  0.00    +0.000 A 
ATOM      3  C   UNL     1      47.804   7.998  13.170  0.00  0.00    +0.000 A 
ATOM      4  C   UNL     1      47.994   6.889  13.994  0.00  0.00    +0.000 A 
ATOM      5  C   UNL     1      46.986   5.926  13.994  0.00  0.00    +0.000 A 
ATOM      6  N   UNL     1      45.883   5.965  13.212  0.00  0.00    +0.000 NA
ENDROOT
BRANCH   1   7
ATOM      7  C   UNL     1      44.537   7.054  11.464  0.00  0.00    +0.000 C 
BRANCH   7   8
ATOM      8  N   UNL     1      44.416   5.857  10.617  0.00  0.00    +0.000 NA
ATOM      9  H   UNL     1      44.481   5.030  11.214  0.00  0.00    +0.000 HD
BRANCH   8  10
ATOM     10  C   UNL     1      45.522   5.760   9.652  0.00  0.00    +0.000 C 
BRANCH  10  16
ATOM     11  C   UNL     1      46.913   2.965   5.901  0.00  0.00    +0.000 C 
ATOM     12  C   UNL     1      46.267   3.040   7.251  0.00  0.00    +0.000 A 
ATOM     13  C   UNL     1      45.774   1.898   7.872  0.00  0.00    +0.000 A 
ATOM     14  C   UNL     1      45.167   2.021   9.117  0.00  0.00    +0.000 A 
ATOM     15  C   UNL     1      45.070   3.277   9.707  0.00  0.00    +0.000 A 
ATOM     16  C   UNL     1      45.580   4.379   9.024  0.00  0.00    +0.000 A 
ATOM     17  N   UNL     1      46.184   4.271   7.814  0.00  0.00    +0.000 NA
ENDBRANCH  10  16
ENDBRANCH   8  10
ENDBRANCH   7   8
ENDBRANCH   1   7
BRANCH   4  18
ATOM     18  C   UNL     1      49.238   6.716  14.831  0.00  0.00    +0.000 C 
BRANCH  18  19
ATOM     19  N   UNL     1      49.073   6.861  16.288  0.00  0.00    +0.000 N 
ATOM     20  C   UNL     1      49.352   8.155  16.901  0.00  0.00    +0.000 C 
ATOM     21  C   UNL     1      48.908   5.670  17.026  0.00  0.00    +0.000 C 
ATOM     22  O   UNL     1      48.866   4.582  16.456  0.00  0.00    +0.000 OA
BRANCH  21  23
ATOM     23  C   UNL     1      48.733   5.735  18.491  0.00  0.00    +0.000 A 
ATOM     24  C   UNL     1      47.529   6.005  19.123  0.00  0.00    +0.000 A 
ATOM     25  S   UNL     1      47.622   5.988  20.827  0.00  0.00    +0.000 S 
ATOM     26  C   UNL     1      49.241   5.471  20.784  0.00  0.00    +0.000 A 
ATOM     27  N   UNL     1      49.902   5.167  21.933  0.00  0.00    +0.000 NA
ATOM     28  C   UNL     1      51.101   4.731  21.755  0.00  0.00    +0.000 A 
ATOM     29  N   UNL     1      51.707   4.603  20.531  0.00  0.00    +0.000 N 
ATOM     30  C   UNL     1      51.128   5.023  19.349  0.00  0.00    +0.000 A 
ATOM     31  O   UNL     1      51.786   5.114  18.320  0.00  0.00    +0.000 OA
ATOM     32  C   UNL     1      49.731   5.409  19.490  0.00  0.00    +0.000 A 
ATOM     33  H   UNL     1      52.678   4.321  20.459  0.00  0.00    +0.000 HD
ENDBRANCH  21  23
ENDBRANCH  18  19
ENDBRANCH   4  18
TORSDOF 7
ENDMDL
MODEL 7
REMARK VINA RESULT:    -6.440      3.482      9.105
REMARK INTER + INTRA:         -10.086
REMARK INTER:                  -8.886
REMARK INTRA:                  -1.199
REMARK UNBOUND:                -1.010
REMARK  Name = 
REMARK  9 active torsions:
REMARK  status: ('A' for Active; 'I' for Inactive)
REMARK    1  A    between atoms: C_1  and  C_2
REMARK    2  A    between atoms: C_6  and  C_7
REMARK    3  A    between atoms: C_7  and  N_8
REMARK    4  A    between atoms: N_8  and  C_9
REMARK    5  A    between atoms: C_9  and  C_10
REMARK    6  A    between atoms: C_13  and  C_14
REMARK    7  A    between atoms: C_14  and  N_15
REMARK    8  A    between atoms: N_15  and  C_16
REMARK    9  A    between atoms: C_17  and  C_19
REMARK                            x       y       z     vdW  Elec       q    Type
REMARK                         _______ _______ _______ _____ _____    ______ ____
ROOT
ATOM      1  C   UNL     1      49.876   9.203  15.468  0.00  0.00    +0.000 A 
ATOM      2  C   UNL     1      48.525   9.092  15.797  0.00  0.00    +0.000 A 
ATOM      3  C   UNL     1      47.597   8.825  14.790  0.00  0.00    +0.000 A 
ATOM      4  C   UNL     1      48.026   8.692  13.470  0.00  0.00    +0.000 A 
ATOM      5  C   UNL     1      49.386   8.877  13.230  0.00  0.00    +0.000 A 
ATOM      6  N   UNL     1      50.313   9.110  14.188  0.00  0.00    +0.000 NA
ENDROOT
BRANCH   1   7
ATOM      7  C   UNL     1      50.917   9.394  16.557  0.00  0.00    +0.000 C 
BRANCH   7   8
ATOM      8  N   UNL     1      50.909   8.345  17.588  0.00  0.00    +0.000 NA
ATOM      9  H   UNL     1      51.672   8.529  18.243  0.00  0.00    +0.000 HD
BRANCH   8  10
ATOM     10  C   UNL     1      51.170   7.015  17.012  0.00  0.00    +0.000 C 
BRANCH  10  16
ATOM     11  C   UNL     1      49.534   2.417  16.979  0.00  0.00    +0.000 C 
ATOM     12  C   UNL     1      49.308   3.837  17.404  0.00  0.00    +0.000 A 
ATOM     13  C   UNL     1      48.170   4.198  18.115  0.00  0.00    +0.000 A 
ATOM     14  C   UNL     1      47.997   5.531  18.472  0.00  0.00    +0.000 A 
ATOM     15  C   UNL     1      48.964   6.464  18.111  0.00  0.00    +0.000 A 
ATOM     16  C   UNL     1      50.077   6.032  17.394  0.00  0.00    +0.000 A 
ATOM     17  N   UNL     1      50.263   4.733  17.048  0.00  0.00    +0.000 NA
ENDBRANCH  10  16
ENDBRANCH   8  10
ENDBRANCH   7   8
ENDBRANCH   1   7
BRANCH   4  18
ATOM     18  C   UNL     1      47.077   8.341  12.350  0.00  0.00    +0.000 C 
BRANCH  18  19
ATOM     19  N   UNL     1      46.614   6.942  12.298  0.00  0.00    +0.000 N 
ATOM     20  C   UNL     1      47.546   5.880  12.660  0.00  0.00    +0.000 C 
ATOM     21  C   UNL     1      45.382   6.709  11.651  0.00  0.00    +0.000 C 
ATOM     22  O   UNL     1      44.727   7.646  11.198  0.00  0.00    +0.000 OA
BRANCH  21  23
ATOM     23  C   UNL     1      44.851   5.335  11.562  0.00  0.00    +0.000 A 
ATOM     24  C   UNL     1      44.098   4.722  12.552  0.00  0.00    +0.000 A 
ATOM     25  S   UNL     1      43.597   3.138  12.161  0.00  0.00    +0.000 S 
ATOM     26  C   UNL     1      44.240   3.268  10.592  0.00  0.00    +0.000 A 
ATOM     27  N   UNL     1      44.061   2.270   9.686  0.00  0.00    +0.000 NA
ATOM     28  C   UNL     1      44.545   2.520   8.519  0.00  0.00    +0.000 A 
ATOM     29  N   UNL     1      45.220   3.668   8.190  0.00  0.00    +0.000 N 
ATOM     30  C   UNL     1      45.544   4.650   9.106  0.00  0.00    +0.000 A 
ATOM     31  O   UNL     1      46.346   5.533   8.830  0.00  0.00    +0.000 OA
ATOM     32  C   UNL     1      44.913   4.463  10.406  0.00  0.00    +0.000 A 
ATOM     33  H   UNL     1      45.641   3.779   7.273  0.00  0.00    +0.000 HD
ENDBRANCH  21  23
ENDBRANCH  18  19
ENDBRANCH   4  18
TORSDOF 7
ENDMDL
MODEL 8
REMARK VINA RESULT:    -6.212      3.530      7.998
REMARK INTER + INTRA:          -9.764
REMARK INTER:                  -8.118
REMARK INTRA:                  -1.646
REMARK UNBOUND:                -1.010
REMARK  Name = 
REMARK  9 active torsions:
REMARK  status: ('A' for Active; 'I' for Inactive)
REMARK    1  A    between atoms: C_1  and  C_2
REMARK    2  A    between atoms: C_6  and  C_7
REMARK    3  A    between atoms: C_7  and  N_8
REMARK    4  A    between atoms: N_8  and  C_9
REMARK    5  A    between atoms: C_9  and  C_10
REMARK    6  A    between atoms: C_13  and  C_14
REMARK    7  A    between atoms: C_14  and  N_15
REMARK    8  A    between atoms: N_15  and  C_16
REMARK    9  A    between atoms: C_17  and  C_19
REMARK                            x       y       z     vdW  Elec       q    Type
REMARK                         _______ _______ _______ _____ _____    ______ ____
ROOT
ATOM      1  C   UNL     1      51.160   8.170  16.902  0.00  0.00    +0.000 A 
ATOM      2  C   UNL     1      50.823   9.506  16.687  0.00  0.00    +0.000 A 
ATOM      3  C   UNL     1      50.268   9.882  15.464  0.00  0.00    +0.000 A 
ATOM      4  C   UNL     1      50.077   8.925  14.467  0.00  0.00    +0.000 A 
ATOM      5  C   UNL     1      50.498   7.628  14.753  0.00  0.00    +0.000 A 
ATOM      6  N   UNL     1      51.013   7.228  15.938  0.00  0.00    +0.000 NA
ENDROOT
BRANCH   1   7
ATOM      7  C   UNL     1      51.672   7.716  18.258  0.00  0.00    +0.000 C 
BRANCH   7   8
ATOM      8  N   UNL     1      51.157   6.407  18.689  0.00  0.00    +0.000 NA
ATOM      9  H   UNL     1      51.365   5.722  17.959  0.00  0.00    +0.000 HD
BRANCH   8  10
ATOM     10  C   UNL     1      49.694   6.421  18.840  0.00  0.00    +0.000 C 
BRANCH  10  16
ATOM     11  C   UNL     1      50.319   1.964  16.952  0.00  0.00    +0.000 C 
ATOM     12  C   UNL     1      49.361   3.048  17.348  0.00  0.00    +0.000 A 
ATOM     13  C   UNL     1      47.993   2.894  17.162  0.00  0.00    +0.000 A 
ATOM     14  C   UNL     1      47.146   3.934  17.528  0.00  0.00    +0.000 A 
ATOM     15  C   UNL     1      47.687   5.095  18.069  0.00  0.00    +0.000 A 
ATOM     16  C   UNL     1      49.069   5.183  18.221  0.00  0.00    +0.000 A 
ATOM     17  N   UNL     1      49.906   4.171  17.877  0.00  0.00    +0.000 NA
ENDBRANCH  10  16
ENDBRANCH   8  10
ENDBRANCH   7   8
ENDBRANCH   1   7
BRANCH   4  18
ATOM     18  C   UNL     1      49.424   9.260  13.148  0.00  0.00    +0.000 C 
BRANCH  18  19
ATOM     19  N   UNL     1      48.505   8.248  12.596  0.00  0.00    +0.000 N 
ATOM     20  C   UNL     1      48.898   7.526  11.392  0.00  0.00    +0.000 C 
ATOM     21  C   UNL     1      47.195   8.233  13.120  0.00  0.00    +0.000 C 
ATOM     22  O   UNL     1      46.873   9.006  14.020  0.00  0.00    +0.000 OA
BRANCH  21  23
ATOM     23  C   UNL     1      46.219   7.245  12.620  0.00  0.00    +0.000 A 
ATOM     24  C   UNL     1      45.226   7.526  11.693  0.00  0.00    +0.000 A 
ATOM     25  S   UNL     1      44.261   6.180  11.282  0.00  0.00    +0.000 S 
ATOM     26  C   UNL     1      45.230   5.137  12.212  0.00  0.00    +0.000 A 
ATOM     27  N   UNL     1      45.002   3.796  12.213  0.00  0.00    +0.000 NA
ATOM     28  C   UNL     1      45.843   3.116  12.911  0.00  0.00    +0.000 A 
ATOM     29  N   UNL     1      46.873   3.662  13.633  0.00  0.00    +0.000 N 
ATOM     30  C   UNL     1      47.067   5.024  13.772  0.00  0.00    +0.000 A 
ATOM     31  O   UNL     1      47.841   5.470  14.609  0.00  0.00    +0.000 OA
ATOM     32  C   UNL     1      46.213   5.823  12.905  0.00  0.00    +0.000 A 
ATOM     33  H   UNL     1      47.462   3.082  14.221  0.00  0.00    +0.000 HD
ENDBRANCH  21  23
ENDBRANCH  18  19
ENDBRANCH   4  18
TORSDOF 7
ENDMDL
MODEL 9
REMARK VINA RESULT:    -5.598      1.751      2.877
REMARK INTER + INTRA:          -8.898
REMARK INTER:                  -7.695
REMARK INTRA:                  -1.204
REMARK UNBOUND:                -1.010
REMARK  Name = 
REMARK  9 active torsions:
REMARK  status: ('A' for Active; 'I' for Inactive)
REMARK    1  A    between atoms: C_1  and  C_2
REMARK    2  A    between atoms: C_6  and  C_7
REMARK    3  A    between atoms: C_7  and  N_8
REMARK    4  A    between atoms: N_8  and  C_9
REMARK    5  A    between atoms: C_9  and  C_10
REMARK    6  A    between atoms: C_13  and  C_14
REMARK    7  A    between atoms: C_14  and  N_15
REMARK    8  A    between atoms: N_15  and  C_16
REMARK    9  A    between atoms: C_17  and  C_19
REMARK                            x       y       z     vdW  Elec       q    Type
REMARK                         _______ _______ _______ _____ _____    ______ ____
ROOT
ATOM      1  C   UNL     1      46.809   8.029  12.370  0.00  0.00    +0.000 A 
ATOM      2  C   UNL     1      47.305   6.771  12.711  0.00  0.00    +0.000 A 
ATOM      3  C   UNL     1      48.479   6.680  13.460  0.00  0.00    +0.000 A 
ATOM      4  C   UNL     1      49.150   7.843  13.839  0.00  0.00    +0.000 A 
ATOM      5  C   UNL     1      48.609   9.051  13.402  0.00  0.00    +0.000 A 
ATOM      6  N   UNL     1      47.459   9.172  12.699  0.00  0.00    +0.000 NA
ENDROOT
BRANCH   1   7
ATOM      7  C   UNL     1      45.481   8.159  11.643  0.00  0.00    +0.000 C 
BRANCH   7   8
ATOM      8  N   UNL     1      44.352   7.513  12.331  0.00  0.00    +0.000 NA
ATOM      9  H   UNL     1      44.726   6.844  13.008  0.00  0.00    +0.000 HD
BRANCH   8  10
ATOM     10  C   UNL     1      43.519   6.738  11.398  0.00  0.00    +0.000 C 
BRANCH  10  16
ATOM     11  C   UNL     1      44.643   2.991   8.480  0.00  0.00    +0.000 C 
ATOM     12  C   UNL     1      44.592   3.537   9.875  0.00  0.00    +0.000 A 
ATOM     13  C   UNL     1      45.005   2.769  10.958  0.00  0.00    +0.000 A 
ATOM     14  C   UNL     1      44.921   3.313  12.236  0.00  0.00    +0.000 A 
ATOM     15  C   UNL     1      44.430   4.604  12.395  0.00  0.00    +0.000 A 
ATOM     16  C   UNL     1      44.028   5.313  11.266  0.00  0.00    +0.000 A 
ATOM     17  N   UNL     1      44.114   4.799  10.013  0.00  0.00    +0.000 NA
ENDBRANCH  10  16
ENDBRANCH   8  10
ENDBRANCH   7   8
ENDBRANCH   1   7
BRANCH   4  18
ATOM     18  C   UNL     1      50.388   7.809  14.702  0.00  0.00    +0.000 C 
BRANCH  18  19
ATOM     19  N   UNL     1      50.173   7.883  16.158  0.00  0.00    +0.000 N 
ATOM     20  C   UNL     1      49.831   9.170  16.753  0.00  0.00    +0.000 C 
ATOM     21  C   UNL     1      50.571   6.758  16.912  0.00  0.00    +0.000 C 
ATOM     22  O   UNL     1      51.031   5.764  16.356  0.00  0.00    +0.000 OA
BRANCH  21  23
ATOM     23  C   UNL     1      50.385   6.757  18.377  0.00  0.00    +0.000 A 
ATOM     24  C   UNL     1      51.300   7.271  19.283  0.00  0.00    +0.000 A 
ATOM     25  S   UNL     1      50.804   7.156  20.911  0.00  0.00    +0.000 S 
ATOM     26  C   UNL     1      49.281   6.551  20.456  0.00  0.00    +0.000 A 
ATOM     27  N   UNL     1      48.317   6.329  21.389  0.00  0.00    +0.000 NA
ATOM     28  C   UNL     1      47.192   5.929  20.906  0.00  0.00    +0.000 A 
ATOM     29  N   UNL     1      46.958   5.701  19.574  0.00  0.00    +0.000 N 
ATOM     30  C   UNL     1      47.940   5.783  18.604  0.00  0.00    +0.000 A 
ATOM     31  O   UNL     1      47.752   5.344  17.476  0.00  0.00    +0.000 OA
ATOM     32  C   UNL     1      49.191   6.347  19.090  0.00  0.00    +0.000 A 
ATOM     33  H   UNL     1      46.073   5.318  19.259  0.00  0.00    +0.000 HD
ENDBRANCH  21  23
ENDBRANCH  18  19
ENDBRANCH   4  18
TORSDOF 7
ENDMDL
