MODEL 1
REMARK VINA RESULT:    -8.629      0.000      0.000
REMARK INTER + INTRA:         -12.431
REMARK INTER:                 -11.656
REMARK INTRA:                  -0.775
REMARK UNBOUND:                -0.775
REMARK  Name = 
REMARK  7 active torsions:
REMARK  status: ('A' for Active; 'I' for Inactive)
REMARK    1  A    between atoms: C_1  and  C_2
REMARK    2  A    between atoms: C_5  and  C_6
REMARK    3  A    between atoms: C_6  and  N_7
REMARK    4  A    between atoms: N_7  and  C_8
REMARK    5  A    between atoms: C_11  and  C_12
REMARK    6  A    between atoms: C_12  and  N_13
REMARK    7  A    between atoms: C_14  and  C_16
REMARK                            x       y       z     vdW  Elec       q    Type
REMARK                         _______ _______ _______ _____ _____    ______ ____
ROOT
ATOM      1  C   UNL     1      44.623   5.997  11.100  0.00  0.00    +0.000 A 
ATOM      2  C   UNL     1      45.790   5.415  11.616  0.00  0.00    +0.000 A 
ATOM      3  C   UNL     1      46.668   6.143  12.434  0.00  0.00    +0.000 A 
ATOM      4  C   UNL     1      46.409   7.485  12.737  0.00  0.00    +0.000 A 
ATOM      5  C   UNL     1      45.303   8.096  12.144  0.00  0.00    +0.000 A 
ATOM      6  C   UNL     1      44.432   7.363  11.330  0.00  0.00    +0.000 A 
ENDROOT
BRANCH   1   7
ATOM      7  N   UNL     1      43.777   5.232  10.274  0.00  0.00    +0.000 N 
ATOM      8  H   UNL     1      43.782   5.593   9.321  0.00  0.00    +0.000 HD
BRANCH   7   9
ATOM      9  C   UNL     1      43.980   3.782  10.291  0.00  0.00    +0.000 C 
BRANCH   9  14
ATOM     10  C   UNL     1      47.545   2.374   5.988  0.00  0.00    +0.000 C 
ATOM     11  C   UNL     1      46.617   2.681   7.123  0.00  0.00    +0.000 A 
ATOM     12  C   UNL     1      46.232   1.692   8.022  0.00  0.00    +0.000 A 
ATOM     13  C   UNL     1      45.356   2.023   9.056  0.00  0.00    +0.000 A 
ATOM     14  C   UNL     1      44.870   3.328   9.164  0.00  0.00    +0.000 A 
ATOM     15  C   UNL     1      45.334   4.251   8.233  0.00  0.00    +0.000 A 
ATOM     16  N   UNL     1      46.183   3.958   7.222  0.00  0.00    +0.000 NA
ENDBRANCH   9  14
ENDBRANCH   7   9
ENDBRANCH   1   7
BRANCH   4  17
ATOM     17  C   UNL     1      47.309   8.279  13.645  0.00  0.00    +0.000 C 
BRANCH  17  18
ATOM     18  N   UNL     1      47.674   7.532  14.820  0.00  0.00    +0.000 N 
ATOM     19  C   UNL     1      48.893   6.910  14.906  0.00  0.00    +0.000 C 
ATOM     20  O   UNL     1      49.729   6.993  14.009  0.00  0.00    +0.000 OA
ATOM     21  H   UNL     1      46.924   7.254  15.446  0.00  0.00    +0.000 HD
BRANCH  19  22
ATOM     22  C   UNL     1      49.181   6.197  16.155  0.00  0.00    +0.000 A 
ATOM     23  C   UNL     1      50.218   6.632  16.971  0.00  0.00    +0.000 A 
ATOM     24  S   UNL     1      50.367   5.743  18.418  0.00  0.00    +0.000 S 
ATOM     25  C   UNL     1      49.089   4.710  17.979  0.00  0.00    +0.000 A 
ATOM     26  N   UNL     1      48.705   3.688  18.792  0.00  0.00    +0.000 NA
ATOM     27  C   UNL     1      47.748   2.962  18.317  0.00  0.00    +0.000 A 
ATOM     28  N   UNL     1      47.140   3.164  17.106  0.00  0.00    +0.000 N 
ATOM     29  C   UNL     1      47.477   4.197  16.263  0.00  0.00    +0.000 A 
ATOM     30  O   UNL     1      46.894   4.369  15.198  0.00  0.00    +0.000 OA
ATOM     31  C   UNL     1      48.550   5.044  16.750  0.00  0.00    +0.000 A 
ATOM     32  H   UNL     1      46.394   2.559  16.794  0.00  0.00    +0.000 HD
ENDBRANCH  19  22
ENDBRANCH  17  18
ENDBRANCH   4  17
TORSDOF 6
ENDMDL
MODEL 2
REMARK VINA RESULT:    -8.404      1.901      2.304
REMARK INTER + INTRA:         -12.127
REMARK INTER:                 -11.181
REMARK INTRA:                  -0.946
REMARK UNBOUND:                -0.775
REMARK  Name = 
REMARK  7 active torsions:
REMARK  status: ('A' for Active; 'I' for Inactive)
REMARK    1  A    between atoms: C_1  and  C_2
REMARK    2  A    between atoms: C_5  and  C_6
REMARK    3  A    between atoms: C_6  and  N_7
REMARK    4  A    between atoms: N_7  and  C_8
REMARK    5  A    between atoms: C_11  and  C_12
REMARK    6  A    between atoms: C_12  and  N_13
REMARK    7  A    between atoms: C_14  and  C_16
REMARK                            x       y       z     vdW  Elec       q    Type
REMARK                         _______ _______ _______ _____ _____    ______ ____
ROOT
ATOM      1  C   UNL     1      45.008   4.807  12.015  0.00  0.00    +0.000 A 
ATOM      2  C   UNL     1      45.734   4.151  13.020  0.00  0.00    +0.000 A 
ATOM      3  C   UNL     1      46.830   4.764  13.646  0.00  0.00    +0.000 A 
ATOM      4  C   UNL     1      47.243   6.045  13.262  0.00  0.00    +0.000 A 
ATOM      5  C   UNL     1      46.586   6.659  12.194  0.00  0.00    +0.000 A 
ATOM      6  C   UNL     1      45.494   6.042  11.575  0.00  0.00    +0.000 A 
ENDROOT
BRANCH   1   7
ATOM      7  N   UNL     1      43.921   4.148  11.406  0.00  0.00    +0.000 N 
ATOM      8  H   UNL     1      43.055   4.347  11.905  0.00  0.00    +0.000 HD
BRANCH   7   9
ATOM      9  C   UNL     1      43.758   4.349   9.964  0.00  0.00    +0.000 C 
BRANCH   9  14
ATOM     10  C   UNL     1      47.521   1.213   6.930  0.00  0.00    +0.000 C 
ATOM     11  C   UNL     1      46.566   2.079   7.692  0.00  0.00    +0.000 A 
ATOM     12  C   UNL     1      46.511   3.452   7.474  0.00  0.00    +0.000 A 
ATOM     13  C   UNL     1      45.614   4.218   8.218  0.00  0.00    +0.000 A 
ATOM     14  C   UNL     1      44.802   3.605   9.174  0.00  0.00    +0.000 A 
ATOM     15  C   UNL     1      44.911   2.224   9.299  0.00  0.00    +0.000 A 
ATOM     16  N   UNL     1      45.770   1.456   8.591  0.00  0.00    +0.000 NA
ENDBRANCH   9  14
ENDBRANCH   7   9
ENDBRANCH   1   7
BRANCH   4  17
ATOM     17  C   UNL     1      48.387   6.745  13.943  0.00  0.00    +0.000 C 
BRANCH  17  18
ATOM     18  N   UNL     1      48.137   6.933  15.348  0.00  0.00    +0.000 N 
ATOM     19  C   UNL     1      49.068   6.559  16.283  0.00  0.00    +0.000 C 
ATOM     20  O   UNL     1      50.156   6.086  15.964  0.00  0.00    +0.000 OA
ATOM     21  H   UNL     1      47.174   7.088  15.632  0.00  0.00    +0.000 HD
BRANCH  19  22
ATOM     22  C   UNL     1      48.730   6.818  17.687  0.00  0.00    +0.000 A 
ATOM     23  C   UNL     1      48.447   8.114  18.098  0.00  0.00    +0.000 A 
ATOM     24  S   UNL     1      47.999   8.229  19.738  0.00  0.00    +0.000 S 
ATOM     25  C   UNL     1      48.223   6.559  19.973  0.00  0.00    +0.000 A 
ATOM     26  N   UNL     1      48.019   5.990  21.192  0.00  0.00    +0.000 NA
ATOM     27  C   UNL     1      48.263   4.722  21.234  0.00  0.00    +0.000 A 
ATOM     28  N   UNL     1      48.690   3.972  20.171  0.00  0.00    +0.000 N 
ATOM     29  C   UNL     1      48.885   4.498  18.915  0.00  0.00    +0.000 A 
ATOM     30  O   UNL     1      49.239   3.794  17.975  0.00  0.00    +0.000 OA
ATOM     31  C   UNL     1      48.626   5.922  18.813  0.00  0.00    +0.000 A 
ATOM     32  H   UNL     1      48.860   2.982  20.271  0.00  0.00    +0.000 HD
ENDBRANCH  19  22
ENDBRANCH  17  18
ENDBRANCH   4  17
TORSDOF 6
ENDMDL
MODEL 3
REMARK VINA RESULT:    -8.247      2.363      2.859
REMARK INTER + INTRA:         -11.915
REMARK INTER:                 -10.791
REMARK INTRA:                  -1.124
REMARK UNBOUND:                -0.775
REMARK  Name = 
REMARK  7 active torsions:
REMARK  status: ('A' for Active; 'I' for Inactive)
REMARK    1  A    between atoms: C_1  and  C_2
REMARK    2  A    between atoms: C_5  and  C_6
REMARK    3  A    between atoms: C_6  and  N_7
REMARK    4  A    between atoms: N_7  and  C_8
REMARK    5  A    between atoms: C_11  and  C_12
REMARK    6  A    between atoms: C_12  and  N_13
REMARK    7  A    between atoms: C_14  and  C_16
REMARK                            x       y       z     vdW  Elec       q    Type
REMARK                         _______ _______ _______ _____ _____    ______ ____
ROOT
ATOM      1  C   UNL     1      45.289   4.180  12.189  0.00  0.00    +0.000 A 
ATOM      2  C   UNL     1      46.091   3.579  13.170  0.00  0.00    +0.000 A 
ATOM      3  C   UNL     1      47.039   4.320  13.892  0.00  0.00    +0.000 A 
ATOM      4  C   UNL     1      47.225   5.682  13.631  0.00  0.00    +0.000 A 
ATOM      5  C   UNL     1      46.501   6.260  12.586  0.00  0.00    +0.000 A 
ATOM      6  C   UNL     1      45.557   5.515  11.871  0.00  0.00    +0.000 A 
ENDROOT
BRANCH   1   7
ATOM      7  N   UNL     1      44.358   3.394  11.480  0.00  0.00    +0.000 N 
ATOM      8  H   UNL     1      43.535   3.210  12.052  0.00  0.00    +0.000 HD
BRANCH   7   9
ATOM      9  C   UNL     1      43.980   3.870  10.148  0.00  0.00    +0.000 C 
BRANCH   9  14
ATOM     10  C   UNL     1      47.785   2.297   6.115  0.00  0.00    +0.000 C 
ATOM     11  C   UNL     1      46.789   2.647   7.180  0.00  0.00    +0.000 A 
ATOM     12  C   UNL     1      46.277   1.673   8.031  0.00  0.00    +0.000 A 
ATOM     13  C   UNL     1      45.343   2.046   8.998  0.00  0.00    +0.000 A 
ATOM     14  C   UNL     1      44.928   3.375   9.087  0.00  0.00    +0.000 A 
ATOM     15  C   UNL     1      45.517   4.279   8.209  0.00  0.00    +0.000 A 
ATOM     16  N   UNL     1      46.425   3.947   7.263  0.00  0.00    +0.000 NA
ENDBRANCH   9  14
ENDBRANCH   7   9
ENDBRANCH   1   7
BRANCH   4  17
ATOM     17  C   UNL     1      48.203   6.512  14.417  0.00  0.00    +0.000 C 
BRANCH  17  18
ATOM     18  N   UNL     1      48.027   6.342  15.835  0.00  0.00    +0.000 N 
ATOM     19  C   UNL     1      49.095   6.048  16.644  0.00  0.00    +0.000 C 
ATOM     20  O   UNL     1      50.238   5.954  16.203  0.00  0.00    +0.000 OA
ATOM     21  H   UNL     1      47.083   6.176  16.170  0.00  0.00    +0.000 HD
BRANCH  19  22
ATOM     22  C   UNL     1      48.817   5.922  18.079  0.00  0.00    +0.000 A 
ATOM     23  C   UNL     1      49.063   4.716  18.723  0.00  0.00    +0.000 A 
ATOM     24  S   UNL     1      48.760   4.762  20.400  0.00  0.00    +0.000 S 
ATOM     25  C   UNL     1      48.234   6.378  20.315  0.00  0.00    +0.000 A 
ATOM     26  N   UNL     1      47.805   7.034  21.428  0.00  0.00    +0.000 NA
ATOM     27  C   UNL     1      47.400   8.241  21.211  0.00  0.00    +0.000 A 
ATOM     28  N   UNL     1      47.385   8.852  19.985  0.00  0.00    +0.000 N 
ATOM     29  C   UNL     1      47.831   8.239  18.838  0.00  0.00    +0.000 A 
ATOM     30  O   UNL     1      47.833   8.823  17.760  0.00  0.00    +0.000 OA
ATOM     31  C   UNL     1      48.297   6.878  19.027  0.00  0.00    +0.000 A 
ATOM     32  H   UNL     1      47.057   9.802  19.884  0.00  0.00    +0.000 HD
ENDBRANCH  19  22
ENDBRANCH  17  18
ENDBRANCH   4  17
TORSDOF 6
ENDMDL
MODEL 4
REMARK VINA RESULT:    -7.569      1.892      2.540
REMARK INTER + INTRA:         -10.999
REMARK INTER:                  -9.773
REMARK INTRA:                  -1.226
REMARK UNBOUND:                -0.775
REMARK  Name = 
REMARK  7 active torsions:
REMARK  status: ('A' for Active; 'I' for Inactive)
REMARK    1  A    between atoms: C_1  and  C_2
REMARK    2  A    between atoms: C_5  and  C_6
REMARK    3  A    between atoms: C_6  and  N_7
REMARK    4  A    between atoms: N_7  and  C_8
REMARK    5  A    between atoms: C_11  and  C_12
REMARK    6  A    between atoms: C_12  and  N_13
REMARK    7  A    between atoms: C_14  and  C_16
REMARK                            x       y       z     vdW  Elec       q    Type
REMARK                         _______ _______ _______ _____ _____    ______ ____
ROOT
ATOM      1  C   UNL     1      45.065   3.995  12.424  0.00  0.00    +0.000 A 
ATOM      2  C   UNL     1      44.611   5.320  12.362  0.00  0.00    +0.000 A 
ATOM      3  C   UNL     1      45.401   6.384  12.823  0.00  0.00    +0.000 A 
ATOM      4  C   UNL     1      46.661   6.143  13.382  0.00  0.00    +0.000 A 
ATOM      5  C   UNL     1      47.074   4.819  13.538  0.00  0.00    +0.000 A 
ATOM      6  C   UNL     1      46.280   3.763  13.075  0.00  0.00    +0.000 A 
ENDROOT
BRANCH   1   7
ATOM      7  N   UNL     1      44.233   2.957  11.960  0.00  0.00    +0.000 N 
ATOM      8  H   UNL     1      43.502   2.751  12.640  0.00  0.00    +0.000 HD
BRANCH   7   9
ATOM      9  C   UNL     1      43.674   3.116  10.616  0.00  0.00    +0.000 C 
BRANCH   9  14
ATOM     10  C   UNL     1      47.597   2.475   6.443  0.00  0.00    +0.000 C 
ATOM     11  C   UNL     1      46.582   2.703   7.522  0.00  0.00    +0.000 A 
ATOM     12  C   UNL     1      46.162   3.987   7.852  0.00  0.00    +0.000 A 
ATOM     13  C   UNL     1      45.225   4.149   8.873  0.00  0.00    +0.000 A 
ATOM     14  C   UNL     1      44.739   3.031   9.553  0.00  0.00    +0.000 A 
ATOM     15  C   UNL     1      45.199   1.789   9.133  0.00  0.00    +0.000 A 
ATOM     16  N   UNL     1      46.106   1.601   8.147  0.00  0.00    +0.000 NA
ENDBRANCH   9  14
ENDBRANCH   7   9
ENDBRANCH   1   7
BRANCH   4  17
ATOM     17  C   UNL     1      47.549   7.266  13.846  0.00  0.00    +0.000 C 
BRANCH  17  18
ATOM     18  N   UNL     1      48.742   6.775  14.484  0.00  0.00    +0.000 N 
ATOM     19  C   UNL     1      49.538   7.611  15.224  0.00  0.00    +0.000 C 
ATOM     20  O   UNL     1      49.251   8.793  15.401  0.00  0.00    +0.000 OA
ATOM     21  H   UNL     1      49.114   5.889  14.154  0.00  0.00    +0.000 HD
BRANCH  19  22
ATOM     22  C   UNL     1      50.715   7.008  15.857  0.00  0.00    +0.000 A 
ATOM     23  C   UNL     1      51.980   7.506  15.571  0.00  0.00    +0.000 A 
ATOM     24  S   UNL     1      53.229   6.745  16.448  0.00  0.00    +0.000 S 
ATOM     25  C   UNL     1      52.131   5.684  17.196  0.00  0.00    +0.000 A 
ATOM     26  N   UNL     1      52.560   4.738  18.075  0.00  0.00    +0.000 NA
ATOM     27  C   UNL     1      51.624   3.977  18.537  0.00  0.00    +0.000 A 
ATOM     28  N   UNL     1      50.299   4.076  18.203  0.00  0.00    +0.000 N 
ATOM     29  C   UNL     1      49.815   5.031  17.340  0.00  0.00    +0.000 A 
ATOM     30  O   UNL     1      48.619   5.114  17.083  0.00  0.00    +0.000 OA
ATOM     31  C   UNL     1      50.828   5.912  16.789  0.00  0.00    +0.000 A 
ATOM     32  H   UNL     1      49.616   3.450  18.604  0.00  0.00    +0.000 HD
ENDBRANCH  19  22
ENDBRANCH  17  18
ENDBRANCH   4  17
TORSDOF 6
ENDMDL
MODEL 5
REMARK VINA RESULT:    -7.415      1.984      2.668
REMARK INTER + INTRA:         -10.791
REMARK INTER:                  -9.863
REMARK INTRA:                  -0.928
REMARK UNBOUND:                -0.775
REMARK  Name = 
REMARK  7 active torsions:
REMARK  status: ('A' for Active; 'I' for Inactive)
REMARK    1  A    between atoms: C_1  and  C_2
REMARK    2  A    between atoms: C_5  and  C_6
REMARK    3  A    between atoms: C_6  and  N_7
REMARK    4  A    between atoms: N_7  and  C_8
REMARK    5  A    between atoms: C_11  and  C_12
REMARK    6  A    between atoms: C_12  and  N_13
REMARK    7  A    between atoms: C_14  and  C_16
REMARK                            x       y       z     vdW  Elec       q    Type
REMARK                         _______ _______ _______ _____ _____    ______ ____
ROOT
ATOM      1  C   UNL     1      45.280   4.539  12.070  0.00  0.00    +0.000 A 
ATOM      2  C   UNL     1      45.538   5.871  11.717  0.00  0.00    +0.000 A 
ATOM      3  C   UNL     1      46.512   6.627  12.386  0.00  0.00    +0.000 A 
ATOM      4  C   UNL     1      47.238   6.073  13.446  0.00  0.00    +0.000 A 
ATOM      5  C   UNL     1      46.914   4.781  13.866  0.00  0.00    +0.000 A 
ATOM      6  C   UNL     1      45.942   4.034  13.193  0.00  0.00    +0.000 A 
ENDROOT
BRANCH   1   7
ATOM      7  N   UNL     1      44.284   3.820  11.378  0.00  0.00    +0.000 N 
ATOM      8  H   UNL     1      43.426   3.779  11.925  0.00  0.00    +0.000 HD
BRANCH   7   9
ATOM      9  C   UNL     1      44.014   4.237  10.000  0.00  0.00    +0.000 C 
BRANCH   9  14
ATOM     10  C   UNL     1      47.834   2.054   6.278  0.00  0.00    +0.000 C 
ATOM     11  C   UNL     1      46.828   2.565   7.265  0.00  0.00    +0.000 A 
ATOM     12  C   UNL     1      46.182   1.701   8.143  0.00  0.00    +0.000 A 
ATOM     13  C   UNL     1      45.244   2.221   9.035  0.00  0.00    +0.000 A 
ATOM     14  C   UNL     1      44.958   3.588   9.023  0.00  0.00    +0.000 A 
ATOM     15  C   UNL     1      45.675   4.373   8.127  0.00  0.00    +0.000 A 
ATOM     16  N   UNL     1      46.590   3.896   7.252  0.00  0.00    +0.000 NA
ENDBRANCH   9  14
ENDBRANCH   7   9
ENDBRANCH   1   7
BRANCH   4  17
ATOM     17  C   UNL     1      48.318   6.845  14.155  0.00  0.00    +0.000 C 
BRANCH  17  18
ATOM     18  N   UNL     1      48.489   6.398  15.512  0.00  0.00    +0.000 N 
ATOM     19  C   UNL     1      48.783   7.290  16.512  0.00  0.00    +0.000 C 
ATOM     20  O   UNL     1      48.878   8.496  16.300  0.00  0.00    +0.000 OA
ATOM     21  H   UNL     1      48.656   5.407  15.659  0.00  0.00    +0.000 HD
BRANCH  19  22
ATOM     22  C   UNL     1      48.910   6.740  17.866  0.00  0.00    +0.000 A 
ATOM     23  C   UNL     1      47.845   6.841  18.752  0.00  0.00    +0.000 A 
ATOM     24  S   UNL     1      48.130   6.084  20.252  0.00  0.00    +0.000 S 
ATOM     25  C   UNL     1      49.708   5.645  19.793  0.00  0.00    +0.000 A 
ATOM     26  N   UNL     1      50.523   4.970  20.649  0.00  0.00    +0.000 NA
ATOM     27  C   UNL     1      51.705   4.736  20.183  0.00  0.00    +0.000 A 
ATOM     28  N   UNL     1      52.146   5.113  18.942  0.00  0.00    +0.000 N 
ATOM     29  C   UNL     1      51.350   5.773  18.035  0.00  0.00    +0.000 A 
ATOM     30  O   UNL     1      51.764   6.071  16.920  0.00  0.00    +0.000 OA
ATOM     31  C   UNL     1      50.010   6.063  18.510  0.00  0.00    +0.000 A 
ATOM     32  H   UNL     1      53.083   4.895  18.638  0.00  0.00    +0.000 HD
ENDBRANCH  19  22
ENDBRANCH  17  18
ENDBRANCH   4  17
TORSDOF 6
ENDMDL
MODEL 6
REMARK VINA RESULT:    -7.127      2.850      8.150
REMARK INTER + INTRA:         -10.402
REMARK INTER:                  -9.113
REMARK INTRA:                  -1.288
REMARK UNBOUND:                -0.775
REMARK  Name = 
REMARK  7 active torsions:
REMARK  status: ('A' for Active; 'I' for Inactive)
REMARK    1  A    between atoms: C_1  and  C_2
REMARK    2  A    between atoms: C_5  and  C_6
REMARK    3  A    between atoms: C_6  and  N_7
REMARK    4  A    between atoms: N_7  and  C_8
REMARK    5  A    between atoms: C_11  and  C_12
REMARK    6  A    between atoms: C_12  and  N_13
REMARK    7  A    between atoms: C_14  and  C_16
REMARK                            x       y       z     vdW  Elec       q    Type
REMARK                         _______ _______ _______ _____ _____    ______ ____
ROOT
ATOM      1  C   UNL     1      49.697   8.579  15.695  0.00  0.00    +0.000 A 
ATOM      2  C   UNL     1      48.374   8.962  15.436  0.00  0.00    +0.000 A 
ATOM      3  C   UNL     1      47.800   8.788  14.167  0.00  0.00    +0.000 A 
ATOM      4  C   UNL     1      48.549   8.245  13.117  0.00  0.00    +0.000 A 
ATOM      5  C   UNL     1      49.895   7.956  13.344  0.00  0.00    +0.000 A 
ATOM      6  C   UNL     1      50.460   8.132  14.612  0.00  0.00    +0.000 A 
ENDROOT
BRANCH   1   7
ATOM      7  N   UNL     1      50.237   8.782  16.982  0.00  0.00    +0.000 N 
ATOM      8  H   UNL     1      49.576   9.284  17.573  0.00  0.00    +0.000 HD
BRANCH   7   9
ATOM      9  C   UNL     1      50.765   7.600  17.665  0.00  0.00    +0.000 C 
BRANCH   9  14
ATOM     10  C   UNL     1      47.321   2.981  17.571  0.00  0.00    +0.000 C 
ATOM     11  C   UNL     1      48.171   4.214  17.623  0.00  0.00    +0.000 A 
ATOM     12  C   UNL     1      47.722   5.369  18.254  0.00  0.00    +0.000 A 
ATOM     13  C   UNL     1      48.545   6.495  18.265  0.00  0.00    +0.000 A 
ATOM     14  C   UNL     1      49.790   6.453  17.635  0.00  0.00    +0.000 A 
ATOM     15  C   UNL     1      50.161   5.244  17.055  0.00  0.00    +0.000 A 
ATOM     16  N   UNL     1      49.384   4.137  17.029  0.00  0.00    +0.000 NA
ENDBRANCH   9  14
ENDBRANCH   7   9
ENDBRANCH   1   7
BRANCH   4  17
ATOM     17  C   UNL     1      47.948   8.007  11.757  0.00  0.00    +0.000 C 
BRANCH  17  18
ATOM     18  N   UNL     1      47.201   6.778  11.712  0.00  0.00    +0.000 N 
ATOM     19  C   UNL     1      45.829   6.791  11.718  0.00  0.00    +0.000 C 
ATOM     20  O   UNL     1      45.189   7.839  11.726  0.00  0.00    +0.000 OA
ATOM     21  H   UNL     1      47.696   5.924  11.949  0.00  0.00    +0.000 HD
BRANCH  19  22
ATOM     22  C   UNL     1      45.161   5.487  11.642  0.00  0.00    +0.000 A 
ATOM     23  C   UNL     1      44.517   4.978  12.762  0.00  0.00    +0.000 A 
ATOM     24  S   UNL     1      43.727   3.494  12.482  0.00  0.00    +0.000 S 
ATOM     25  C   UNL     1      44.265   3.450  10.869  0.00  0.00    +0.000 A 
ATOM     26  N   UNL     1      43.948   2.407  10.054  0.00  0.00    +0.000 NA
ATOM     27  C   UNL     1      44.455   2.487   8.868  0.00  0.00    +0.000 A 
ATOM     28  N   UNL     1      45.248   3.511   8.423  0.00  0.00    +0.000 N 
ATOM     29  C   UNL     1      45.574   4.596   9.202  0.00  0.00    +0.000 A 
ATOM     30  O   UNL     1      46.261   5.513   8.765  0.00  0.00    +0.000 OA
ATOM     31  C   UNL     1      45.030   4.556  10.546  0.00  0.00    +0.000 A 
ATOM     32  H   UNL     1      45.610   3.513   7.481  0.00  0.00    +0.000 HD
ENDBRANCH  19  22
ENDBRANCH  17  18
ENDBRANCH   4  17
TORSDOF 6
ENDMDL
MODEL 7
REMARK VINA RESULT:    -6.974      4.052      5.489
REMARK INTER + INTRA:         -10.195
REMARK INTER:                  -9.119
REMARK INTRA:                  -1.076
REMARK UNBOUND:                -0.775
REMARK  Name = 
REMARK  7 active torsions:
REMARK  status: ('A' for Active; 'I' for Inactive)
REMARK    1  A    between atoms: C_1  and  C_2
REMARK    2  A    between atoms: C_5  and  C_6
REMARK    3  A    between atoms: C_6  and  N_7
REMARK    4  A    between atoms: N_7  and  C_8
REMARK    5  A    between atoms: C_11  and  C_12
REMARK    6  A    between atoms: C_12  and  N_13
REMARK    7  A    between atoms: C_14  and  C_16
REMARK                            x       y       z     vdW  Elec       q    Type
REMARK                         _______ _______ _______ _____ _____    ______ ____
ROOT
ATOM      1  C   UNL     1      44.972   6.744  11.368  0.00  0.00    +0.000 A 
ATOM      2  C   UNL     1      44.667   8.109  11.460  0.00  0.00    +0.000 A 
ATOM      3  C   UNL     1      45.516   9.002  12.131  0.00  0.00    +0.000 A 
ATOM      4  C   UNL     1      46.685   8.543  12.749  0.00  0.00    +0.000 A 
ATOM      5  C   UNL     1      46.940   7.171  12.746  0.00  0.00    +0.000 A 
ATOM      6  C   UNL     1      46.088   6.287  12.075  0.00  0.00    +0.000 A 
ENDROOT
BRANCH   1   7
ATOM      7  N   UNL     1      44.084   5.881  10.694  0.00  0.00    +0.000 N 
ATOM      8  H   UNL     1      44.024   6.126   9.707  0.00  0.00    +0.000 HD
BRANCH   7   9
ATOM      9  C   UNL     1      44.309   4.444  10.868  0.00  0.00    +0.000 C 
BRANCH   9  14
ATOM     10  C   UNL     1      47.036   2.365   6.237  0.00  0.00    +0.000 C 
ATOM     11  C   UNL     1      46.313   2.848   7.457  0.00  0.00    +0.000 A 
ATOM     12  C   UNL     1      45.767   1.951   8.370  0.00  0.00    +0.000 A 
ATOM     13  C   UNL     1      45.091   2.449   9.484  0.00  0.00    +0.000 A 
ATOM     14  C   UNL     1      44.959   3.828   9.658  0.00  0.00    +0.000 A 
ATOM     15  C   UNL     1      45.562   4.643   8.706  0.00  0.00    +0.000 A 
ATOM     16  N   UNL     1      46.223   4.188   7.617  0.00  0.00    +0.000 NA
ENDBRANCH   9  14
ENDBRANCH   7   9
ENDBRANCH   1   7
BRANCH   4  17
ATOM     17  C   UNL     1      47.637   9.483  13.439  0.00  0.00    +0.000 C 
BRANCH  17  18
ATOM     18  N   UNL     1      48.923   9.508  12.794  0.00  0.00    +0.000 N 
ATOM     19  C   UNL     1      49.142  10.302  11.697  0.00  0.00    +0.000 C 
ATOM     20  O   UNL     1      48.272  11.043  11.247  0.00  0.00    +0.000 OA
ATOM     21  H   UNL     1      49.559   8.742  12.994  0.00  0.00    +0.000 HD
BRANCH  19  22
ATOM     22  C   UNL     1      50.494  10.278  11.129  0.00  0.00    +0.000 A 
ATOM     23  C   UNL     1      51.113  11.470  10.775  0.00  0.00    +0.000 A 
ATOM     24  S   UNL     1      52.707  11.271  10.204  0.00  0.00    +0.000 S 
ATOM     25  C   UNL     1      52.607   9.580  10.355  0.00  0.00    +0.000 A 
ATOM     26  N   UNL     1      53.654   8.783  10.007  0.00  0.00    +0.000 NA
ATOM     27  C   UNL     1      53.426   7.518  10.137  0.00  0.00    +0.000 A 
ATOM     28  N   UNL     1      52.249   6.977  10.584  0.00  0.00    +0.000 N 
ATOM     29  C   UNL     1      51.174   7.742  10.970  0.00  0.00    +0.000 A 
ATOM     30  O   UNL     1      50.145   7.229  11.394  0.00  0.00    +0.000 OA
ATOM     31  C   UNL     1      51.378   9.173  10.842  0.00  0.00    +0.000 A 
ATOM     32  H   UNL     1      52.137   5.977  10.665  0.00  0.00    +0.000 HD
ENDBRANCH  19  22
ENDBRANCH  17  18
ENDBRANCH   4  17
TORSDOF 6
ENDMDL
MODEL 8
REMARK VINA RESULT:    -6.596      2.064      2.898
REMARK INTER + INTRA:          -9.684
REMARK INTER:                  -8.740
REMARK INTRA:                  -0.944
REMARK UNBOUND:                -0.775
REMARK  Name = 
REMARK  7 active torsions:
REMARK  status: ('A' for Active; 'I' for Inactive)
REMARK    1  A    between atoms: C_1  and  C_2
REMARK    2  A    between atoms: C_5  and  C_6
REMARK    3  A    between atoms: C_6  and  N_7
REMARK    4  A    between atoms: N_7  and  C_8
REMARK    5  A    between atoms: C_11  and  C_12
REMARK    6  A    between atoms: C_12  and  N_13
REMARK    7  A    between atoms: C_14  and  C_16
REMARK                            x       y       z     vdW  Elec       q    Type
REMARK                         _______ _______ _______ _____ _____    ______ ____
ROOT
ATOM      1  C   UNL     1      45.601   7.427  12.013  0.00  0.00    +0.000 A 
ATOM      2  C   UNL     1      46.496   6.432  12.431  0.00  0.00    +0.000 A 
ATOM      3  C   UNL     1      47.431   6.673  13.449  0.00  0.00    +0.000 A 
ATOM      4  C   UNL     1      47.509   7.931  14.060  0.00  0.00    +0.000 A 
ATOM      5  C   UNL     1      46.689   8.952  13.577  0.00  0.00    +0.000 A 
ATOM      6  C   UNL     1      45.759   8.703  12.562  0.00  0.00    +0.000 A 
ENDROOT
BRANCH   1   7
ATOM      7  N   UNL     1      44.687   7.144  10.979  0.00  0.00    +0.000 N 
ATOM      8  H   UNL     1      45.149   7.174  10.071  0.00  0.00    +0.000 HD
BRANCH   7   9
ATOM      9  C   UNL     1      43.889   5.925  11.125  0.00  0.00    +0.000 C 
BRANCH   9  14
ATOM     10  C   UNL     1      45.841   1.335   8.238  0.00  0.00    +0.000 C 
ATOM     11  C   UNL     1      45.369   2.564   8.954  0.00  0.00    +0.000 A 
ATOM     12  C   UNL     1      45.783   3.831   8.554  0.00  0.00    +0.000 A 
ATOM     13  C   UNL     1      45.327   4.944   9.259  0.00  0.00    +0.000 A 
ATOM     14  C   UNL     1      44.482   4.773  10.357  0.00  0.00    +0.000 A 
ATOM     15  C   UNL     1      44.103   3.470  10.663  0.00  0.00    +0.000 A 
ATOM     16  N   UNL     1      44.529   2.373   9.996  0.00  0.00    +0.000 NA
ENDBRANCH   9  14
ENDBRANCH   7   9
ENDBRANCH   1   7
BRANCH   4  17
ATOM     17  C   UNL     1      48.472   8.207  15.183  0.00  0.00    +0.000 C 
BRANCH  17  18
ATOM     18  N   UNL     1      48.313   7.269  16.263  0.00  0.00    +0.000 N 
ATOM     19  C   UNL     1      49.269   6.317  16.512  0.00  0.00    +0.000 C 
ATOM     20  O   UNL     1      50.304   6.248  15.854  0.00  0.00    +0.000 OA
ATOM     21  H   UNL     1      47.380   7.156  16.648  0.00  0.00    +0.000 HD
BRANCH  19  22
ATOM     22  C   UNL     1      49.028   5.427  17.653  0.00  0.00    +0.000 A 
ATOM     23  C   UNL     1      48.875   4.063  17.440  0.00  0.00    +0.000 A 
ATOM     24  S   UNL     1      48.680   3.165  18.876  0.00  0.00    +0.000 S 
ATOM     25  C   UNL     1      48.735   4.573  19.829  0.00  0.00    +0.000 A 
ATOM     26  N   UNL     1      48.606   4.507  21.182  0.00  0.00    +0.000 NA
ATOM     27  C   UNL     1      48.628   5.655  21.774  0.00  0.00    +0.000 A 
ATOM     28  N   UNL     1      48.769   6.861  21.139  0.00  0.00    +0.000 N 
ATOM     29  C   UNL     1      48.927   6.974  19.778  0.00  0.00    +0.000 A 
ATOM     30  O   UNL     1      49.081   8.066  19.241  0.00  0.00    +0.000 OA
ATOM     31  C   UNL     1      48.908   5.712  19.063  0.00  0.00    +0.000 A 
ATOM     32  H   UNL     1      48.781   7.723  21.663  0.00  0.00    +0.000 HD
ENDBRANCH  19  22
ENDBRANCH  17  18
ENDBRANCH   4  17
TORSDOF 6
ENDMDL
MODEL 9
REMARK VINA RESULT:    -6.441      3.803      5.770
REMARK INTER + INTRA:          -9.476
REMARK INTER:                  -8.499
REMARK INTRA:                  -0.977
REMARK UNBOUND:                -0.775
REMARK  Name = 
REMARK  7 active torsions:
REMARK  status: ('A' for Active; 'I' for Inactive)
REMARK    1  A    between atoms: C_1  and  C_2
REMARK    2  A    between atoms: C_5  and  C_6
REMARK    3  A    between atoms: C_6  and  N_7
REMARK    4  A    between atoms: N_7  and  C_8
REMARK    5  A    between atoms: C_11  and  C_12
REMARK    6  A    between atoms: C_12  and  N_13
REMARK    7  A    between atoms: C_14  and  C_16
REMARK                            x       y       z     vdW  Elec       q    Type
REMARK                         _______ _______ _______ _____ _____    ______ ____
ROOT
ATOM      1  C   UNL     1      47.315   4.481  15.422  0.00  0.00    +0.000 A 
ATOM      2  C   UNL     1      47.379   3.685  16.575  0.00  0.00    +0.000 A 
ATOM      3  C   UNL     1      48.091   4.102  17.710  0.00  0.00    +0.000 A 
ATOM      4  C   UNL     1      48.780   5.320  17.709  0.00  0.00    +0.000 A 
ATOM      5  C   UNL     1      48.802   6.067  16.530  0.00  0.00    +0.000 A 
ATOM      6  C   UNL     1      48.089   5.645  15.402  0.00  0.00    +0.000 A 
ENDROOT
BRANCH   1   7
ATOM      7  N   UNL     1      46.598   4.018  14.301  0.00  0.00    +0.000 N 
ATOM      8  H   UNL     1      46.089   3.165  14.527  0.00  0.00    +0.000 HD
BRANCH   7   9
ATOM      9  C   UNL     1      45.730   4.989  13.631  0.00  0.00    +0.000 C 
BRANCH   9  14
ATOM     10  C   UNL     1      44.786   3.560   8.129  0.00  0.00    +0.000 C 
ATOM     11  C   UNL     1      45.053   3.986   9.540  0.00  0.00    +0.000 A 
ATOM     12  C   UNL     1      45.519   5.265   9.828  0.00  0.00    +0.000 A 
ATOM     13  C   UNL     1      45.765   5.610  11.157  0.00  0.00    +0.000 A 
ATOM     14  C   UNL     1      45.557   4.671  12.169  0.00  0.00    +0.000 A 
ATOM     15  C   UNL     1      45.065   3.429  11.784  0.00  0.00    +0.000 A 
ATOM     16  N   UNL     1      44.817   3.067  10.505  0.00  0.00    +0.000 NA
ENDBRANCH   9  14
ENDBRANCH   7   9
ENDBRANCH   1   7
BRANCH   4  17
ATOM     17  C   UNL     1      49.516   5.814  18.925  0.00  0.00    +0.000 C 
BRANCH  17  18
ATOM     18  N   UNL     1      49.053   7.112  19.339  0.00  0.00    +0.000 N 
ATOM     19  C   UNL     1      47.883   7.247  20.043  0.00  0.00    +0.000 C 
ATOM     20  O   UNL     1      47.208   6.276  20.375  0.00  0.00    +0.000 OA
ATOM     21  H   UNL     1      49.455   7.920  18.874  0.00  0.00    +0.000 HD
BRANCH  19  22
ATOM     22  C   UNL     1      47.511   8.608  20.443  0.00  0.00    +0.000 A 
ATOM     23  C   UNL     1      47.171   8.868  21.764  0.00  0.00    +0.000 A 
ATOM     24  S   UNL     1      46.842  10.511  22.075  0.00  0.00    +0.000 S 
ATOM     25  C   UNL     1      47.085  10.925  20.444  0.00  0.00    +0.000 A 
ATOM     26  N   UNL     1      46.938  12.210  20.018  0.00  0.00    +0.000 NA
ATOM     27  C   UNL     1      47.117  12.373  18.749  0.00  0.00    +0.000 A 
ATOM     28  N   UNL     1      47.429  11.372  17.868  0.00  0.00    +0.000 N 
ATOM     29  C   UNL     1      47.612  10.065  18.256  0.00  0.00    +0.000 A 
ATOM     30  O   UNL     1      47.921   9.196  17.447  0.00  0.00    +0.000 OA
ATOM     31  C   UNL     1      47.422   9.826  19.674  0.00  0.00    +0.000 A 
ATOM     32  H   UNL     1      47.557  11.568  16.886  0.00  0.00    +0.000 HD
ENDBRANCH  19  22
ENDBRANCH  17  18
ENDBRANCH   4  17
TORSDOF 6
ENDMDL
