MODEL 1
REMARK VINA RESULT:    -8.492      0.000      0.000
REMARK INTER + INTRA:         -13.741
REMARK INTER:                 -12.711
REMARK INTRA:                  -1.030
REMARK UNBOUND:                -1.030
REMARK  Name = 
REMARK  9 active torsions:
REMARK  status: ('A' for Active; 'I' for Inactive)
REMARK    1  A    between atoms: N_1  and  C_2
REMARK    2  A    between atoms: C_2  and  C_3
REMARK    3  A    between atoms: C_2  and  C_26
REMARK    4  A    between atoms: C_3  and  N_4
REMARK    5  A    between atoms: N_4  and  C_5
REMARK    6  A    between atoms: C_5  and  C_6
REMARK    7  A    between atoms: C_9  and  C_10
REMARK    8  A    between atoms: C_10  and  N_11
REMARK    9  A    between atoms: C_12  and  C_14
REMARK                            x       y       z     vdW  Elec       q    Type
REMARK                         _______ _______ _______ _____ _____    ______ ____
ROOT
ATOM      1  C   UNL     1      44.642   4.560  13.012  0.00  0.00    +0.000 A 
ATOM      2  C   UNL     1      44.637   5.908  12.661  0.00  0.00    +0.000 A 
ATOM      3  C   UNL     1      45.780   6.672  12.895  0.00  0.00    +0.000 A 
ATOM      4  C   UNL     1      46.896   6.086  13.493  0.00  0.00    +0.000 A 
ATOM      5  C   UNL     1      46.822   4.731  13.789  0.00  0.00    +0.000 A 
ATOM      6  N   UNL     1      45.735   3.962  13.553  0.00  0.00    +0.000 NA
ENDROOT
BRANCH   1   7
ATOM      7  C   UNL     1      43.394   3.717  12.770  0.00  0.00    +0.000 C 
BRANCH   7   8
ATOM      8  N   UNL     1      43.027   3.640  11.351  0.00  0.00    +0.000 NA
ATOM      9  H   UNL     1      42.108   3.191  11.303  0.00  0.00    +0.000 HD
BRANCH   8  10
ATOM     10  C   UNL     1      44.005   2.896  10.555  0.00  0.00    +0.000 C 
BRANCH  10  11
ATOM     11  C   UNL     1      44.718   3.799   9.498  0.00  0.00    +0.000 C 
BRANCH  11  12
ATOM     12  C   UNL     1      45.596   2.991   8.561  0.00  0.00    +0.000 A 
ATOM     13  C   UNL     1      46.294   3.555   7.484  0.00  0.00    +0.000 A 
ATOM     14  C   UNL     1      47.081   2.755   6.664  0.00  0.00    +0.000 A 
ATOM     15  C   UNL     1      47.138   1.400   6.931  0.00  0.00    +0.000 A 
ATOM     16  N   UNL     1      46.465   0.806   7.939  0.00  0.00    +0.000 NA
ATOM     17  C   UNL     1      45.716   1.613   8.729  0.00  0.00    +0.000 A 
ENDBRANCH  11  12
BRANCH  11  18
ATOM     18  N   UNL     1      43.736   4.618   8.759  0.00  0.00    +0.000 NA
ATOM     19  H   UNL     1      44.021   5.594   8.816  0.00  0.00    +0.000 HD
ATOM     20  H   UNL     1      42.872   4.595   9.307  0.00  0.00    +0.000 HD
ENDBRANCH  11  18
ENDBRANCH  10  11
ENDBRANCH   8  10
ENDBRANCH   7   8
ENDBRANCH   1   7
BRANCH   4  21
ATOM     21  C   UNL     1      48.149   6.863  13.762  0.00  0.00    +0.000 C 
BRANCH  21  22
ATOM     22  N   UNL     1      48.179   7.351  15.116  0.00  0.00    +0.000 N 
ATOM     23  C   UNL     1      48.873   6.689  16.095  0.00  0.00    +0.000 C 
ATOM     24  O   UNL     1      49.519   5.671  15.858  0.00  0.00    +0.000 OA
ATOM     25  H   UNL     1      47.471   8.028  15.383  0.00  0.00    +0.000 HD
BRANCH  23  26
ATOM     26  C   UNL     1      48.856   7.295  17.431  0.00  0.00    +0.000 A 
ATOM     27  C   UNL     1      49.539   8.481  17.659  0.00  0.00    +0.000 A 
ATOM     28  S   UNL     1      49.377   9.066  19.253  0.00  0.00    +0.000 S 
ATOM     29  C   UNL     1      48.428   7.728  19.707  0.00  0.00    +0.000 A 
ATOM     30  N   UNL     1      47.971   7.593  20.980  0.00  0.00    +0.000 NA
ATOM     31  C   UNL     1      47.284   6.518  21.189  0.00  0.00    +0.000 A 
ATOM     32  N   UNL     1      47.008   5.572  20.241  0.00  0.00    +0.000 N 
ATOM     33  C   UNL     1      47.424   5.678  18.936  0.00  0.00    +0.000 A 
ATOM     34  O   UNL     1      47.123   4.831  18.095  0.00  0.00    +0.000 OA
ATOM     35  C   UNL     1      48.214   6.858  18.652  0.00  0.00    +0.000 A 
ATOM     36  H   UNL     1      46.453   4.758  20.466  0.00  0.00    +0.000 HD
ENDBRANCH  23  26
ENDBRANCH  21  22
ENDBRANCH   4  21
TORSDOF 9
ENDMDL
MODEL 2
REMARK VINA RESULT:    -7.798      1.740      2.039
REMARK INTER + INTRA:         -12.703
REMARK INTER:                 -11.786
REMARK INTRA:                  -0.917
REMARK UNBOUND:                -1.030
REMARK  Name = 
REMARK  9 active torsions:
REMARK  status: ('A' for Active; 'I' for Inactive)
REMARK    1  A    between atoms: N_1  and  C_2
REMARK    2  A    between atoms: C_2  and  C_3
REMARK    3  A    between atoms: C_2  and  C_26
REMARK    4  A    between atoms: C_3  and  N_4
REMARK    5  A    between atoms: N_4  and  C_5
REMARK    6  A    between atoms: C_5  and  C_6
REMARK    7  A    between atoms: C_9  and  C_10
REMARK    8  A    between atoms: C_10  and  N_11
REMARK    9  A    between atoms: C_12  and  C_14
REMARK                            x       y       z     vdW  Elec       q    Type
REMARK                         _______ _______ _______ _____ _____    ______ ____
ROOT
ATOM      1  C   UNL     1      44.412   6.141  11.863  0.00  0.00    +0.000 A 
ATOM      2  C   UNL     1      44.797   7.412  11.442  0.00  0.00    +0.000 A 
ATOM      3  C   UNL     1      45.933   7.995  12.003  0.00  0.00    +0.000 A 
ATOM      4  C   UNL     1      46.650   7.312  12.987  0.00  0.00    +0.000 A 
ATOM      5  C   UNL     1      46.208   6.041  13.330  0.00  0.00    +0.000 A 
ATOM      6  N   UNL     1      45.123   5.444  12.787  0.00  0.00    +0.000 NA
ENDROOT
BRANCH   1   7
ATOM      7  C   UNL     1      43.166   5.498  11.264  0.00  0.00    +0.000 C 
BRANCH   7   8
ATOM      8  N   UNL     1      43.374   5.029   9.889  0.00  0.00    +0.000 NA
ATOM      9  H   UNL     1      42.577   4.431   9.653  0.00  0.00    +0.000 HD
BRANCH   8  10
ATOM     10  C   UNL     1      44.632   4.296   9.728  0.00  0.00    +0.000 C 
BRANCH  10  11
ATOM     11  C   UNL     1      44.432   2.933   8.990  0.00  0.00    +0.000 C 
BRANCH  11  12
ATOM     12  C   UNL     1      45.614   2.592   8.101  0.00  0.00    +0.000 A 
ATOM     13  C   UNL     1      46.185   3.501   7.200  0.00  0.00    +0.000 A 
ATOM     14  C   UNL     1      47.266   3.123   6.413  0.00  0.00    +0.000 A 
ATOM     15  C   UNL     1      47.744   1.830   6.536  0.00  0.00    +0.000 A 
ATOM     16  N   UNL     1      47.212   0.911   7.369  0.00  0.00    +0.000 NA
ATOM     17  C   UNL     1      46.167   1.314   8.131  0.00  0.00    +0.000 A 
ENDBRANCH  11  12
BRANCH  11  18
ATOM     18  N   UNL     1      44.140   1.852   9.952  0.00  0.00    +0.000 NA
ATOM     19  H   UNL     1      43.220   1.470   9.739  0.00  0.00    +0.000 HD
ATOM     20  H   UNL     1      43.999   2.305  10.859  0.00  0.00    +0.000 HD
ENDBRANCH  11  18
ENDBRANCH  10  11
ENDBRANCH   8  10
ENDBRANCH   7   8
ENDBRANCH   1   7
BRANCH   4  21
ATOM     21  C   UNL     1      47.879   7.894  13.618  0.00  0.00    +0.000 C 
BRANCH  21  22
ATOM     22  N   UNL     1      48.084   7.366  14.942  0.00  0.00    +0.000 N 
ATOM     23  C   UNL     1      49.343   7.241  15.469  0.00  0.00    +0.000 C 
ATOM     24  O   UNL     1      50.345   7.595  14.853  0.00  0.00    +0.000 OA
ATOM     25  H   UNL     1      47.317   6.850  15.362  0.00  0.00    +0.000 HD
BRANCH  23  26
ATOM     26  C   UNL     1      49.428   6.719  16.838  0.00  0.00    +0.000 A 
ATOM     27  C   UNL     1      50.025   7.483  17.831  0.00  0.00    +0.000 A 
ATOM     28  S   UNL     1      49.998   6.743  19.368  0.00  0.00    +0.000 S 
ATOM     29  C   UNL     1      49.231   5.356  18.749  0.00  0.00    +0.000 A 
ATOM     30  N   UNL     1      48.940   4.299  19.553  0.00  0.00    +0.000 NA
ATOM     31  C   UNL     1      48.381   3.305  18.946  0.00  0.00    +0.000 A 
ATOM     32  N   UNL     1      48.081   3.275  17.612  0.00  0.00    +0.000 N 
ATOM     33  C   UNL     1      48.330   4.327  16.765  0.00  0.00    +0.000 A 
ATOM     34  O   UNL     1      48.010   4.287  15.578  0.00  0.00    +0.000 OA
ATOM     35  C   UNL     1      48.974   5.463  17.394  0.00  0.00    +0.000 A 
ATOM     36  H   UNL     1      47.631   2.469  17.199  0.00  0.00    +0.000 HD
ENDBRANCH  23  26
ENDBRANCH  21  22
ENDBRANCH   4  21
TORSDOF 9
ENDMDL
MODEL 3
REMARK VINA RESULT:    -7.553      1.512      2.263
REMARK INTER + INTRA:         -12.336
REMARK INTER:                 -11.409
REMARK INTRA:                  -0.927
REMARK UNBOUND:                -1.030
REMARK  Name = 
REMARK  9 active torsions:
REMARK  status: ('A' for Active; 'I' for Inactive)
REMARK    1  A    between atoms: N_1  and  C_2
REMARK    2  A    between atoms: C_2  and  C_3
REMARK    3  A    between atoms: C_2  and  C_26
REMARK    4  A    between atoms: C_3  and  N_4
REMARK    5  A    between atoms: N_4  and  C_5
REMARK    6  A    between atoms: C_5  and  C_6
REMARK    7  A    between atoms: C_9  and  C_10
REMARK    8  A    between atoms: C_10  and  N_11
REMARK    9  A    between atoms: C_12  and  C_14
REMARK                            x       y       z     vdW  Elec       q    Type
REMARK                         _______ _______ _______ _____ _____    ______ ____
ROOT
ATOM      1  C   UNL     1      44.727   5.599  12.425  0.00  0.00    +0.000 A 
ATOM      2  C   UNL     1      45.413   4.613  13.129  0.00  0.00    +0.000 A 
ATOM      3  C   UNL     1      46.612   4.943  13.760  0.00  0.00    +0.000 A 
ATOM      4  C   UNL     1      47.115   6.241  13.660  0.00  0.00    +0.000 A 
ATOM      5  C   UNL     1      46.354   7.166  12.957  0.00  0.00    +0.000 A 
ATOM      6  N   UNL     1      45.178   6.878  12.355  0.00  0.00    +0.000 NA
ENDROOT
BRANCH   1   7
ATOM      7  C   UNL     1      43.420   5.247  11.722  0.00  0.00    +0.000 C 
BRANCH   7   8
ATOM      8  N   UNL     1      43.527   5.308  10.260  0.00  0.00    +0.000 NA
ATOM      9  H   UNL     1      42.673   4.891   9.879  0.00  0.00    +0.000 HD
BRANCH   8  10
ATOM     10  C   UNL     1      44.710   4.611   9.751  0.00  0.00    +0.000 C 
BRANCH  10  11
ATOM     11  C   UNL     1      44.370   3.186   9.210  0.00  0.00    +0.000 C 
BRANCH  11  12
ATOM     12  C   UNL     1      45.502   2.609   8.380  0.00  0.00    +0.000 A 
ATOM     13  C   UNL     1      46.262   3.372   7.483  0.00  0.00    +0.000 A 
ATOM     14  C   UNL     1      47.285   2.781   6.752  0.00  0.00    +0.000 A 
ATOM     15  C   UNL     1      47.515   1.428   6.925  0.00  0.00    +0.000 A 
ATOM     16  N   UNL     1      46.795   0.646   7.757  0.00  0.00    +0.000 NA
ATOM     17  C   UNL     1      45.812   1.254   8.464  0.00  0.00    +0.000 A 
ENDBRANCH  11  12
BRANCH  11  18
ATOM     18  N   UNL     1      43.984   2.283  10.313  0.00  0.00    +0.000 NA
ATOM     19  H   UNL     1      43.479   2.825  11.012  0.00  0.00    +0.000 HD
ATOM     20  H   UNL     1      44.851   2.031  10.795  0.00  0.00    +0.000 HD
ENDBRANCH  11  18
ENDBRANCH  10  11
ENDBRANCH   8  10
ENDBRANCH   7   8
ENDBRANCH   1   7
BRANCH   4  21
ATOM     21  C   UNL     1      48.397   6.647  14.323  0.00  0.00    +0.000 C 
BRANCH  21  22
ATOM     22  N   UNL     1      48.198   6.907  15.725  0.00  0.00    +0.000 N 
ATOM     23  C   UNL     1      48.636   6.027  16.680  0.00  0.00    +0.000 C 
ATOM     24  O   UNL     1      49.238   4.997  16.388  0.00  0.00    +0.000 OA
ATOM     25  H   UNL     1      47.504   7.605  15.976  0.00  0.00    +0.000 HD
BRANCH  23  26
ATOM     26  C   UNL     1      48.405   6.411  18.077  0.00  0.00    +0.000 A 
ATOM     27  C   UNL     1      47.703   5.559  18.919  0.00  0.00    +0.000 A 
ATOM     28  S   UNL     1      47.565   6.142  20.517  0.00  0.00    +0.000 S 
ATOM     29  C   UNL     1      48.397   7.575  20.125  0.00  0.00    +0.000 A 
ATOM     30  N   UNL     1      48.601   8.542  21.058  0.00  0.00    +0.000 NA
ATOM     31  C   UNL     1      49.224   9.585  20.617  0.00  0.00    +0.000 A 
ATOM     32  N   UNL     1      49.666   9.744  19.333  0.00  0.00    +0.000 N 
ATOM     33  C   UNL     1      49.508   8.784  18.363  0.00  0.00    +0.000 A 
ATOM     34  O   UNL     1      49.954   8.939  17.227  0.00  0.00    +0.000 OA
ATOM     35  C   UNL     1      48.798   7.600  18.802  0.00  0.00    +0.000 A 
ATOM     36  H   UNL     1      50.159  10.581  19.054  0.00  0.00    +0.000 HD
ENDBRANCH  23  26
ENDBRANCH  21  22
ENDBRANCH   4  21
TORSDOF 9
ENDMDL
MODEL 4
REMARK VINA RESULT:    -7.538      4.109      4.920
REMARK INTER + INTRA:         -12.314
REMARK INTER:                 -11.150
REMARK INTRA:                  -1.163
REMARK UNBOUND:                -1.030
REMARK  Name = 
REMARK  9 active torsions:
REMARK  status: ('A' for Active; 'I' for Inactive)
REMARK    1  A    between atoms: N_1  and  C_2
REMARK    2  A    between atoms: C_2  and  C_3
REMARK    3  A    between atoms: C_2  and  C_26
REMARK    4  A    between atoms: C_3  and  N_4
REMARK    5  A    between atoms: N_4  and  C_5
REMARK    6  A    between atoms: C_5  and  C_6
REMARK    7  A    between atoms: C_9  and  C_10
REMARK    8  A    between atoms: C_10  and  N_11
REMARK    9  A    between atoms: C_12  and  C_14
REMARK                            x       y       z     vdW  Elec       q    Type
REMARK                         _______ _______ _______ _____ _____    ______ ____
ROOT
ATOM      1  C   UNL     1      47.416   5.249  14.422  0.00  0.00    +0.000 A 
ATOM      2  C   UNL     1      47.271   4.459  15.560  0.00  0.00    +0.000 A 
ATOM      3  C   UNL     1      48.010   4.772  16.700  0.00  0.00    +0.000 A 
ATOM      4  C   UNL     1      48.893   5.853  16.681  0.00  0.00    +0.000 A 
ATOM      5  C   UNL     1      48.957   6.600  15.512  0.00  0.00    +0.000 A 
ATOM      6  N   UNL     1      48.237   6.332  14.400  0.00  0.00    +0.000 NA
ENDROOT
BRANCH   1   7
ATOM      7  C   UNL     1      46.622   4.910  13.166  0.00  0.00    +0.000 C 
BRANCH   7   8
ATOM      8  N   UNL     1      45.411   4.132  13.453  0.00  0.00    +0.000 NA
ATOM      9  H   UNL     1      45.539   3.707  14.375  0.00  0.00    +0.000 HD
BRANCH   8  10
ATOM     10  C   UNL     1      45.151   3.102  12.444  0.00  0.00    +0.000 C 
BRANCH  10  11
ATOM     11  C   UNL     1      44.222   3.617  11.298  0.00  0.00    +0.000 C 
BRANCH  11  12
ATOM     12  C   UNL     1      44.895   3.529   9.941  0.00  0.00    +0.000 A 
ATOM     13  C   UNL     1      45.190   2.313   9.308  0.00  0.00    +0.000 A 
ATOM     14  C   UNL     1      45.810   2.304   8.064  0.00  0.00    +0.000 A 
ATOM     15  C   UNL     1      46.136   3.517   7.486  0.00  0.00    +0.000 A 
ATOM     16  N   UNL     1      45.896   4.712   8.067  0.00  0.00    +0.000 NA
ATOM     17  C   UNL     1      45.280   4.689   9.273  0.00  0.00    +0.000 A 
ENDBRANCH  11  12
BRANCH  11  18
ATOM     18  N   UNL     1      42.926   2.911  11.314  0.00  0.00    +0.000 NA
ATOM     19  H   UNL     1      43.022   2.047  10.784  0.00  0.00    +0.000 HD
ATOM     20  H   UNL     1      42.288   3.467  10.738  0.00  0.00    +0.000 HD
ENDBRANCH  11  18
ENDBRANCH  10  11
ENDBRANCH   8  10
ENDBRANCH   7   8
ENDBRANCH   1   7
BRANCH   4  21
ATOM     21  C   UNL     1      49.706   6.232  17.881  0.00  0.00    +0.000 C 
BRANCH  21  22
ATOM     22  N   UNL     1      50.656   5.202  18.213  0.00  0.00    +0.000 N 
ATOM     23  C   UNL     1      51.917   5.199  17.675  0.00  0.00    +0.000 C 
ATOM     24  O   UNL     1      52.300   6.082  16.911  0.00  0.00    +0.000 OA
ATOM     25  H   UNL     1      50.294   4.351  18.632  0.00  0.00    +0.000 HD
BRANCH  23  26
ATOM     26  C   UNL     1      52.808   4.118  18.108  0.00  0.00    +0.000 A 
ATOM     27  C   UNL     1      54.016   4.423  18.722  0.00  0.00    +0.000 A 
ATOM     28  S   UNL     1      54.905   3.048  19.199  0.00  0.00    +0.000 S 
ATOM     29  C   UNL     1      53.729   1.997  18.559  0.00  0.00    +0.000 A 
ATOM     30  N   UNL     1      53.893   0.648  18.612  0.00  0.00    +0.000 NA
ATOM     31  C   UNL     1      52.936  -0.027  18.067  0.00  0.00    +0.000 A 
ATOM     32  N   UNL     1      51.828   0.522  17.482  0.00  0.00    +0.000 N 
ATOM     33  C   UNL     1      51.605   1.877  17.429  0.00  0.00    +0.000 A 
ATOM     34  O   UNL     1      50.579   2.340  16.933  0.00  0.00    +0.000 OA
ATOM     35  C   UNL     1      52.660   2.682  18.011  0.00  0.00    +0.000 A 
ATOM     36  H   UNL     1      51.108  -0.063  17.083  0.00  0.00    +0.000 HD
ENDBRANCH  23  26
ENDBRANCH  21  22
ENDBRANCH   4  21
TORSDOF 9
ENDMDL
MODEL 5
REMARK VINA RESULT:    -7.491      2.522      3.177
REMARK INTER + INTRA:         -12.243
REMARK INTER:                 -11.495
REMARK INTRA:                  -0.748
REMARK UNBOUND:                -1.030
REMARK  Name = 
REMARK  9 active torsions:
REMARK  status: ('A' for Active; 'I' for Inactive)
REMARK    1  A    between atoms: N_1  and  C_2
REMARK    2  A    between atoms: C_2  and  C_3
REMARK    3  A    between atoms: C_2  and  C_26
REMARK    4  A    between atoms: C_3  and  N_4
REMARK    5  A    between atoms: N_4  and  C_5
REMARK    6  A    between atoms: C_5  and  C_6
REMARK    7  A    between atoms: C_9  and  C_10
REMARK    8  A    between atoms: C_10  and  N_11
REMARK    9  A    between atoms: C_12  and  C_14
REMARK                            x       y       z     vdW  Elec       q    Type
REMARK                         _______ _______ _______ _____ _____    ______ ____
ROOT
ATOM      1  C   UNL     1      44.564   5.783  11.825  0.00  0.00    +0.000 A 
ATOM      2  C   UNL     1      44.855   7.129  11.613  0.00  0.00    +0.000 A 
ATOM      3  C   UNL     1      45.962   7.690  12.249  0.00  0.00    +0.000 A 
ATOM      4  C   UNL     1      46.745   6.907  13.099  0.00  0.00    +0.000 A 
ATOM      5  C   UNL     1      46.396   5.570  13.233  0.00  0.00    +0.000 A 
ATOM      6  N   UNL     1      45.341   4.995  12.612  0.00  0.00    +0.000 NA
ENDROOT
BRANCH   1   7
ATOM      7  C   UNL     1      43.350   5.161  11.143  0.00  0.00    +0.000 C 
BRANCH   7   8
ATOM      8  N   UNL     1      43.528   5.010   9.694  0.00  0.00    +0.000 NA
ATOM      9  H   UNL     1      42.756   4.428   9.356  0.00  0.00    +0.000 HD
BRANCH   8  10
ATOM     10  C   UNL     1      44.816   4.406   9.344  0.00  0.00    +0.000 C 
BRANCH  10  11
ATOM     11  C   UNL     1      44.658   2.957   8.783  0.00  0.00    +0.000 C 
BRANCH  11  12
ATOM     12  C   UNL     1      45.775   2.596   7.822  0.00  0.00    +0.000 A 
ATOM     13  C   UNL     1      46.132   3.393   6.725  0.00  0.00    +0.000 A 
ATOM     14  C   UNL     1      47.166   3.003   5.882  0.00  0.00    +0.000 A 
ATOM     15  C   UNL     1      47.812   1.809   6.148  0.00  0.00    +0.000 A 
ATOM     16  N   UNL     1      47.488   0.995   7.175  0.00  0.00    +0.000 NA
ATOM     17  C   UNL     1      46.484   1.409   7.986  0.00  0.00    +0.000 A 
ENDBRANCH  11  12
BRANCH  11  18
ATOM     18  N   UNL     1      44.543   1.977   9.882  0.00  0.00    +0.000 NA
ATOM     19  H   UNL     1      45.480   1.704  10.170  0.00  0.00    +0.000 HD
ATOM     20  H   UNL     1      44.168   1.121   9.465  0.00  0.00    +0.000 HD
ENDBRANCH  11  18
ENDBRANCH  10  11
ENDBRANCH   8  10
ENDBRANCH   7   8
ENDBRANCH   1   7
BRANCH   4  21
ATOM     21  C   UNL     1      47.947   7.462  13.802  0.00  0.00    +0.000 C 
BRANCH  21  22
ATOM     22  N   UNL     1      48.489   6.509  14.737  0.00  0.00    +0.000 N 
ATOM     23  C   UNL     1      48.851   6.886  16.004  0.00  0.00    +0.000 C 
ATOM     24  O   UNL     1      48.707   8.037  16.407  0.00  0.00    +0.000 OA
ATOM     25  H   UNL     1      48.841   5.635  14.360  0.00  0.00    +0.000 HD
BRANCH  23  26
ATOM     26  C   UNL     1      49.363   5.825  16.878  0.00  0.00    +0.000 A 
ATOM     27  C   UNL     1      48.476   5.025  17.584  0.00  0.00    +0.000 A 
ATOM     28  S   UNL     1      49.240   3.816  18.515  0.00  0.00    +0.000 S 
ATOM     29  C   UNL     1      50.785   4.352  18.044  0.00  0.00    +0.000 A 
ATOM     30  N   UNL     1      51.909   3.752  18.518  0.00  0.00    +0.000 NA
ATOM     31  C   UNL     1      53.012   4.276  18.097  0.00  0.00    +0.000 A 
ATOM     32  N   UNL     1      53.093   5.339  17.240  0.00  0.00    +0.000 N 
ATOM     33  C   UNL     1      51.987   5.960  16.712  0.00  0.00    +0.000 A 
ATOM     34  O   UNL     1      52.093   6.887  15.910  0.00  0.00    +0.000 OA
ATOM     35  C   UNL     1      50.722   5.421  17.168  0.00  0.00    +0.000 A 
ATOM     36  H   UNL     1      53.990   5.695  16.938  0.00  0.00    +0.000 HD
ENDBRANCH  23  26
ENDBRANCH  21  22
ENDBRANCH   4  21
TORSDOF 9
ENDMDL
MODEL 6
REMARK VINA RESULT:    -7.440      3.475      8.869
REMARK INTER + INTRA:         -12.166
REMARK INTER:                 -10.661
REMARK INTRA:                  -1.506
REMARK UNBOUND:                -1.030
REMARK  Name = 
REMARK  9 active torsions:
REMARK  status: ('A' for Active; 'I' for Inactive)
REMARK    1  A    between atoms: N_1  and  C_2
REMARK    2  A    between atoms: C_2  and  C_3
REMARK    3  A    between atoms: C_2  and  C_26
REMARK    4  A    between atoms: C_3  and  N_4
REMARK    5  A    between atoms: N_4  and  C_5
REMARK    6  A    between atoms: C_5  and  C_6
REMARK    7  A    between atoms: C_9  and  C_10
REMARK    8  A    between atoms: C_10  and  N_11
REMARK    9  A    between atoms: C_12  and  C_14
REMARK                            x       y       z     vdW  Elec       q    Type
REMARK                         _______ _______ _______ _____ _____    ______ ____
ROOT
ATOM      1  C   UNL     1      49.274   7.983  15.821  0.00  0.00    +0.000 A 
ATOM      2  C   UNL     1      48.284   8.891  15.455  0.00  0.00    +0.000 A 
ATOM      3  C   UNL     1      47.752   8.830  14.168  0.00  0.00    +0.000 A 
ATOM      4  C   UNL     1      48.230   7.880  13.263  0.00  0.00    +0.000 A 
ATOM      5  C   UNL     1      49.201   6.999  13.720  0.00  0.00    +0.000 A 
ATOM      6  N   UNL     1      49.719   7.023  14.968  0.00  0.00    +0.000 NA
ENDROOT
BRANCH   1   7
ATOM      7  C   UNL     1      49.871   8.047  17.222  0.00  0.00    +0.000 C 
BRANCH   7   8
ATOM      8  N   UNL     1      48.858   7.925  18.277  0.00  0.00    +0.000 NA
ATOM      9  H   UNL     1      49.114   8.586  19.017  0.00  0.00    +0.000 HD
BRANCH   8  10
ATOM     10  C   UNL     1      48.763   6.565  18.814  0.00  0.00    +0.000 C 
BRANCH  10  11
ATOM     11  C   UNL     1      47.826   5.655  17.958  0.00  0.00    +0.000 C 
BRANCH  11  12
ATOM     12  C   UNL     1      48.529   4.392  17.496  0.00  0.00    +0.000 A 
ATOM     13  C   UNL     1      47.860   3.316  16.895  0.00  0.00    +0.000 A 
ATOM     14  C   UNL     1      48.565   2.187  16.497  0.00  0.00    +0.000 A 
ATOM     15  C   UNL     1      49.929   2.154  16.725  0.00  0.00    +0.000 A 
ATOM     16  N   UNL     1      50.614   3.152  17.323  0.00  0.00    +0.000 NA
ATOM     17  C   UNL     1      49.900   4.244  17.689  0.00  0.00    +0.000 A 
ENDBRANCH  11  12
BRANCH  11  18
ATOM     18  N   UNL     1      46.577   5.353  18.686  0.00  0.00    +0.000 NA
ATOM     19  H   UNL     1      46.804   5.214  19.670  0.00  0.00    +0.000 HD
ATOM     20  H   UNL     1      46.285   4.420  18.381  0.00  0.00    +0.000 HD
ENDBRANCH  11  18
ENDBRANCH  10  11
ENDBRANCH   8  10
ENDBRANCH   7   8
ENDBRANCH   1   7
BRANCH   4  21
ATOM     21  C   UNL     1      47.687   7.771  11.870  0.00  0.00    +0.000 C 
BRANCH  21  22
ATOM     22  N   UNL     1      46.979   6.532  11.683  0.00  0.00    +0.000 N 
ATOM     23  C   UNL     1      45.617   6.465  11.820  0.00  0.00    +0.000 C 
ATOM     24  O   UNL     1      44.940   7.456  12.081  0.00  0.00    +0.000 OA
ATOM     25  H   UNL     1      47.522   5.675  11.713  0.00  0.00    +0.000 HD
BRANCH  23  26
ATOM     26  C   UNL     1      45.000   5.156  11.577  0.00  0.00    +0.000 A 
ATOM     27  C   UNL     1      44.314   4.516  12.600  0.00  0.00    +0.000 A 
ATOM     28  S   UNL     1      43.624   3.028  12.132  0.00  0.00    +0.000 S 
ATOM     29  C   UNL     1      44.259   3.165  10.558  0.00  0.00    +0.000 A 
ATOM     30  N   UNL     1      44.057   2.189   9.634  0.00  0.00    +0.000 NA
ATOM     31  C   UNL     1      44.615   2.413   8.491  0.00  0.00    +0.000 A 
ATOM     32  N   UNL     1      45.349   3.527   8.186  0.00  0.00    +0.000 N 
ATOM     33  C   UNL     1      45.557   4.552   9.076  0.00  0.00    +0.000 A 
ATOM     34  O   UNL     1      46.186   5.560   8.758  0.00  0.00    +0.000 OA
ATOM     35  C   UNL     1      44.966   4.341  10.382  0.00  0.00    +0.000 A 
ATOM     36  H   UNL     1      45.750   3.648   7.266  0.00  0.00    +0.000 HD
ENDBRANCH  23  26
ENDBRANCH  21  22
ENDBRANCH   4  21
TORSDOF 9
ENDMDL
MODEL 7
REMARK VINA RESULT:    -7.039      2.441      2.925
REMARK INTER + INTRA:         -11.566
REMARK INTER:                 -11.063
REMARK INTRA:                  -0.503
REMARK UNBOUND:                -1.030
REMARK  Name = 
REMARK  9 active torsions:
REMARK  status: ('A' for Active; 'I' for Inactive)
REMARK    1  A    between atoms: N_1  and  C_2
REMARK    2  A    between atoms: C_2  and  C_3
REMARK    3  A    between atoms: C_2  and  C_26
REMARK    4  A    between atoms: C_3  and  N_4
REMARK    5  A    between atoms: N_4  and  C_5
REMARK    6  A    between atoms: C_5  and  C_6
REMARK    7  A    between atoms: C_9  and  C_10
REMARK    8  A    between atoms: C_10  and  N_11
REMARK    9  A    between atoms: C_12  and  C_14
REMARK                            x       y       z     vdW  Elec       q    Type
REMARK                         _______ _______ _______ _____ _____    ______ ____
ROOT
ATOM      1  C   UNL     1      44.066   4.444  11.998  0.00  0.00    +0.000 A 
ATOM      2  C   UNL     1      43.555   5.572  11.361  0.00  0.00    +0.000 A 
ATOM      3  C   UNL     1      44.082   6.824  11.676  0.00  0.00    +0.000 A 
ATOM      4  C   UNL     1      45.091   6.931  12.634  0.00  0.00    +0.000 A 
ATOM      5  C   UNL     1      45.557   5.752  13.202  0.00  0.00    +0.000 A 
ATOM      6  N   UNL     1      45.079   4.525  12.899  0.00  0.00    +0.000 NA
ENDROOT
BRANCH   1   7
ATOM      7  C   UNL     1      43.490   3.071  11.668  0.00  0.00    +0.000 C 
BRANCH   7   8
ATOM      8  N   UNL     1      44.297   2.338  10.686  0.00  0.00    +0.000 NA
ATOM      9  H   UNL     1      45.261   2.335  11.031  0.00  0.00    +0.000 HD
BRANCH   8  10
ATOM     10  C   UNL     1      44.232   2.931   9.348  0.00  0.00    +0.000 C 
BRANCH  10  11
ATOM     11  C   UNL     1      45.572   3.626   8.944  0.00  0.00    +0.000 C 
BRANCH  11  12
ATOM     12  C   UNL     1      46.249   2.920   7.784  0.00  0.00    +0.000 A 
ATOM     13  C   UNL     1      46.514   3.541   6.555  0.00  0.00    +0.000 A 
ATOM     14  C   UNL     1      47.137   2.834   5.533  0.00  0.00    +0.000 A 
ATOM     15  C   UNL     1      47.469   1.511   5.761  0.00  0.00    +0.000 A 
ATOM     16  N   UNL     1      47.212   0.862   6.916  0.00  0.00    +0.000 NA
ATOM     17  C   UNL     1      46.615   1.581   7.897  0.00  0.00    +0.000 A 
ENDBRANCH  11  12
BRANCH  11  18
ATOM     18  N   UNL     1      45.356   5.060   8.662  0.00  0.00    +0.000 NA
ATOM     19  H   UNL     1      46.263   5.502   8.527  0.00  0.00    +0.000 HD
ATOM     20  H   UNL     1      45.021   5.477   9.534  0.00  0.00    +0.000 HD
ENDBRANCH  11  18
ENDBRANCH  10  11
ENDBRANCH   8  10
ENDBRANCH   7   8
ENDBRANCH   1   7
BRANCH   4  21
ATOM     21  C   UNL     1      45.693   8.253  13.005  0.00  0.00    +0.000 C 
BRANCH  21  22
ATOM     22  N   UNL     1      46.912   8.078  13.752  0.00  0.00    +0.000 N 
ATOM     23  C   UNL     1      48.115   7.909  13.119  0.00  0.00    +0.000 C 
ATOM     24  O   UNL     1      48.214   7.926  11.894  0.00  0.00    +0.000 OA
ATOM     25  H   UNL     1      46.826   7.818  14.730  0.00  0.00    +0.000 HD
BRANCH  23  26
ATOM     26  C   UNL     1      49.293   7.771  13.982  0.00  0.00    +0.000 A 
ATOM     27  C   UNL     1      50.426   8.534  13.731  0.00  0.00    +0.000 A 
ATOM     28  S   UNL     1      51.682   8.279  14.857  0.00  0.00    +0.000 S 
ATOM     29  C   UNL     1      50.774   7.104  15.689  0.00  0.00    +0.000 A 
ATOM     30  N   UNL     1      51.290   6.453  16.765  0.00  0.00    +0.000 NA
ATOM     31  C   UNL     1      50.501   5.571  17.284  0.00  0.00    +0.000 A 
ATOM     32  N   UNL     1      49.242   5.287  16.830  0.00  0.00    +0.000 N 
ATOM     33  C   UNL     1      48.667   5.937  15.764  0.00  0.00    +0.000 A 
ATOM     34  O   UNL     1      47.517   5.689  15.406  0.00  0.00    +0.000 OA
ATOM     35  C   UNL     1      49.519   6.926  15.134  0.00  0.00    +0.000 A 
ATOM     36  H   UNL     1      48.669   4.593  17.289  0.00  0.00    +0.000 HD
ENDBRANCH  23  26
ENDBRANCH  21  22
ENDBRANCH   4  21
TORSDOF 9
ENDMDL
MODEL 8
REMARK VINA RESULT:    -7.036      3.596      8.966
REMARK INTER + INTRA:         -11.562
REMARK INTER:                  -9.245
REMARK INTRA:                  -2.317
REMARK UNBOUND:                -1.030
REMARK  Name = 
REMARK  9 active torsions:
REMARK  status: ('A' for Active; 'I' for Inactive)
REMARK    1  A    between atoms: N_1  and  C_2
REMARK    2  A    between atoms: C_2  and  C_3
REMARK    3  A    between atoms: C_2  and  C_26
REMARK    4  A    between atoms: C_3  and  N_4
REMARK    5  A    between atoms: N_4  and  C_5
REMARK    6  A    between atoms: C_5  and  C_6
REMARK    7  A    between atoms: C_9  and  C_10
REMARK    8  A    between atoms: C_10  and  N_11
REMARK    9  A    between atoms: C_12  and  C_14
REMARK                            x       y       z     vdW  Elec       q    Type
REMARK                         _______ _______ _______ _____ _____    ______ ____
ROOT
ATOM      1  C   UNL     1      48.455   5.521  20.100  0.00  0.00    +0.000 A 
ATOM      2  C   UNL     1      49.363   4.611  19.564  0.00  0.00    +0.000 A 
ATOM      3  C   UNL     1      49.056   3.976  18.361  0.00  0.00    +0.000 A 
ATOM      4  C   UNL     1      47.843   4.244  17.725  0.00  0.00    +0.000 A 
ATOM      5  C   UNL     1      47.008   5.182  18.318  0.00  0.00    +0.000 A 
ATOM      6  N   UNL     1      47.290   5.828  19.471  0.00  0.00    +0.000 NA
ENDROOT
BRANCH   1   7
ATOM      7  C   UNL     1      48.776   6.213  21.420  0.00  0.00    +0.000 C 
BRANCH   7   8
ATOM      8  N   UNL     1      48.485   7.652  21.393  0.00  0.00    +0.000 NA
ATOM      9  H   UNL     1      47.585   7.766  20.917  0.00  0.00    +0.000 HD
BRANCH   8  10
ATOM     10  C   UNL     1      49.526   8.425  20.713  0.00  0.00    +0.000 C 
BRANCH  10  11
ATOM     11  C   UNL     1      49.043   8.989  19.339  0.00  0.00    +0.000 C 
BRANCH  11  12
ATOM     12  C   UNL     1      49.606   8.198  18.172  0.00  0.00    +0.000 A 
ATOM     13  C   UNL     1      48.877   7.923  17.007  0.00  0.00    +0.000 A 
ATOM     14  C   UNL     1      49.453   7.190  15.976  0.00  0.00    +0.000 A 
ATOM     15  C   UNL     1      50.748   6.734  16.143  0.00  0.00    +0.000 A 
ATOM     16  N   UNL     1      51.481   6.950  17.255  0.00  0.00    +0.000 NA
ATOM     17  C   UNL     1      50.896   7.677  18.237  0.00  0.00    +0.000 A 
ENDBRANCH  11  12
BRANCH  11  18
ATOM     18  N   UNL     1      47.569   9.064  19.290  0.00  0.00    +0.000 NA
ATOM     19  H   UNL     1      47.290  10.028  19.459  0.00  0.00    +0.000 HD
ATOM     20  H   UNL     1      47.229   8.573  20.121  0.00  0.00    +0.000 HD
ENDBRANCH  11  18
ENDBRANCH  10  11
ENDBRANCH   8  10
ENDBRANCH   7   8
ENDBRANCH   1   7
BRANCH   4  21
ATOM     21  C   UNL     1      47.468   3.591  16.429  0.00  0.00    +0.000 C 
BRANCH  21  22
ATOM     22  N   UNL     1      46.857   4.535  15.529  0.00  0.00    +0.000 N 
ATOM     23  C   UNL     1      46.761   4.275  14.186  0.00  0.00    +0.000 C 
ATOM     24  O   UNL     1      47.164   3.223  13.697  0.00  0.00    +0.000 OA
ATOM     25  H   UNL     1      46.747   5.489  15.858  0.00  0.00    +0.000 HD
BRANCH  23  26
ATOM     26  C   UNL     1      46.094   5.295  13.371  0.00  0.00    +0.000 A 
ATOM     27  C   UNL     1      46.739   6.495  13.101  0.00  0.00    +0.000 A 
ATOM     28  S   UNL     1      45.838   7.545  12.104  0.00  0.00    +0.000 S 
ATOM     29  C   UNL     1      44.534   6.453  12.038  0.00  0.00    +0.000 A 
ATOM     30  N   UNL     1      43.399   6.758  11.353  0.00  0.00    +0.000 NA
ATOM     31  C   UNL     1      42.483   5.849  11.408  0.00  0.00    +0.000 A 
ATOM     32  N   UNL     1      42.600   4.662  12.077  0.00  0.00    +0.000 N 
ATOM     33  C   UNL     1      43.736   4.298  12.759  0.00  0.00    +0.000 A 
ATOM     34  O   UNL     1      43.827   3.204  13.316  0.00  0.00    +0.000 OA
ATOM     35  C   UNL     1      44.789   5.292  12.744  0.00  0.00    +0.000 A 
ATOM     36  H   UNL     1      41.849   3.986  12.070  0.00  0.00    +0.000 HD
ENDBRANCH  23  26
ENDBRANCH  21  22
ENDBRANCH   4  21
TORSDOF 9
ENDMDL
MODEL 9
REMARK VINA RESULT:    -6.827      2.734      3.184
REMARK INTER + INTRA:         -11.250
REMARK INTER:                 -10.180
REMARK INTRA:                  -1.070
REMARK UNBOUND:                -1.030
REMARK  Name = 
REMARK  9 active torsions:
REMARK  status: ('A' for Active; 'I' for Inactive)
REMARK    1  A    between atoms: N_1  and  C_2
REMARK    2  A    between atoms: C_2  and  C_3
REMARK    3  A    between atoms: C_2  and  C_26
REMARK    4  A    between atoms: C_3  and  N_4
REMARK    5  A    between atoms: N_4  and  C_5
REMARK    6  A    between atoms: C_5  and  C_6
REMARK    7  A    between atoms: C_9  and  C_10
REMARK    8  A    between atoms: C_10  and  N_11
REMARK    9  A    between atoms: C_12  and  C_14
REMARK                            x       y       z     vdW  Elec       q    Type
REMARK                         _______ _______ _______ _____ _____    ______ ____
ROOT
ATOM      1  C   UNL     1      45.522   6.042  12.351  0.00  0.00    +0.000 A 
ATOM      2  C   UNL     1      46.512   5.377  13.069  0.00  0.00    +0.000 A 
ATOM      3  C   UNL     1      47.584   6.108  13.580  0.00  0.00    +0.000 A 
ATOM      4  C   UNL     1      47.659   7.483  13.349  0.00  0.00    +0.000 A 
ATOM      5  C   UNL     1      46.616   8.067  12.643  0.00  0.00    +0.000 A 
ATOM      6  N   UNL     1      45.555   7.386  12.155  0.00  0.00    +0.000 NA
ENDROOT
BRANCH   1   7
ATOM      7  C   UNL     1      44.350   5.250  11.778  0.00  0.00    +0.000 C 
BRANCH   7   8
ATOM      8  N   UNL     1      44.240   5.374  10.320  0.00  0.00    +0.000 NA
ATOM      9  H   UNL     1      43.319   5.012  10.057  0.00  0.00    +0.000 HD
BRANCH   8  10
ATOM     10  C   UNL     1      45.297   4.648   9.611  0.00  0.00    +0.000 C 
BRANCH  10  11
ATOM     11  C   UNL     1      44.727   3.521   8.692  0.00  0.00    +0.000 C 
BRANCH  11  12
ATOM     12  C   UNL     1      45.803   2.906   7.816  0.00  0.00    +0.000 A 
ATOM     13  C   UNL     1      46.348   3.555   6.699  0.00  0.00    +0.000 A 
ATOM     14  C   UNL     1      47.331   2.933   5.938  0.00  0.00    +0.000 A 
ATOM     15  C   UNL     1      47.738   1.663   6.306  0.00  0.00    +0.000 A 
ATOM     16  N   UNL     1      47.226   0.988   7.357  0.00  0.00    +0.000 NA
ATOM     17  C   UNL     1      46.278   1.625   8.085  0.00  0.00    +0.000 A 
ENDBRANCH  11  12
BRANCH  11  18
ATOM     18  N   UNL     1      44.019   2.500   9.489  0.00  0.00    +0.000 NA
ATOM     19  H   UNL     1      43.838   1.694   8.893  0.00  0.00    +0.000 HD
ATOM     20  H   UNL     1      43.083   2.873   9.667  0.00  0.00    +0.000 HD
ENDBRANCH  11  18
ENDBRANCH  10  11
ENDBRANCH   8  10
ENDBRANCH   7   8
ENDBRANCH   1   7
BRANCH   4  21
ATOM     21  C   UNL     1      48.788   8.314  13.880  0.00  0.00    +0.000 C 
BRANCH  21  22
ATOM     22  N   UNL     1      49.782   7.492  14.521  0.00  0.00    +0.000 N 
ATOM     23  C   UNL     1      50.729   8.038  15.348  0.00  0.00    +0.000 C 
ATOM     24  O   UNL     1      50.757   9.240  15.600  0.00  0.00    +0.000 OA
ATOM     25  H   UNL     1      49.931   6.561  14.144  0.00  0.00    +0.000 HD
BRANCH  23  26
ATOM     26  C   UNL     1      51.672   7.101  15.969  0.00  0.00    +0.000 A 
ATOM     27  C   UNL     1      53.038   7.301  15.827  0.00  0.00    +0.000 A 
ATOM     28  S   UNL     1      53.986   6.145  16.648  0.00  0.00    +0.000 S 
ATOM     29  C   UNL     1      52.603   5.309  17.182  0.00  0.00    +0.000 A 
ATOM     30  N   UNL     1      52.713   4.178  17.928  0.00  0.00    +0.000 NA
ATOM     31  C   UNL     1      51.584   3.634  18.243  0.00  0.00    +0.000 A 
ATOM     32  N   UNL     1      50.357   4.122  17.886  0.00  0.00    +0.000 N 
ATOM     33  C   UNL     1      50.194   5.275  17.157  0.00  0.00    +0.000 A 
ATOM     34  O   UNL     1      49.076   5.712  16.888  0.00  0.00    +0.000 OA
ATOM     35  C   UNL     1      51.432   5.916  16.763  0.00  0.00    +0.000 A 
ATOM     36  H   UNL     1      49.509   3.655  18.175  0.00  0.00    +0.000 HD
ENDBRANCH  23  26
ENDBRANCH  21  22
ENDBRANCH   4  21
TORSDOF 9
ENDMDL
