MODEL 1
REMARK VINA RESULT:    -7.431      0.000      0.000
REMARK INTER + INTRA:         -11.823
REMARK INTER:                 -10.689
REMARK INTRA:                  -1.134
REMARK UNBOUND:                -1.134
REMARK  Name = 
REMARK  9 active torsions:
REMARK  status: ('A' for Active; 'I' for Inactive)
REMARK    1  A    between atoms: C_1  and  O_2
REMARK    2  A    between atoms: O_2  and  C_3
REMARK    3  A    between atoms: C_5  and  O_6
REMARK    4  A    between atoms: O_6  and  C_7
REMARK    5  A    between atoms: C_7  and  C_8
REMARK    6  A    between atoms: C_8  and  C_9
REMARK    7  A    between atoms: C_13  and  C_14
REMARK    8  A    between atoms: C_14  and  N_15
REMARK    9  A    between atoms: C_19  and  C_20
REMARK                            x       y       z     vdW  Elec       q    Type
REMARK                         _______ _______ _______ _____ _____    ______ ____
ROOT
ATOM      1  C   UNL     1      46.112   6.539  12.625  0.00  0.00    +0.000 A 
ATOM      2  C   UNL     1      44.901   5.873  12.389  0.00  0.00    +0.000 A 
ATOM      3  C   UNL     1      44.748   4.577  12.862  0.00  0.00    +0.000 A 
ATOM      4  N   UNL     1      45.711   3.918  13.534  0.00  0.00    +0.000 NA
ATOM      5  C   UNL     1      46.876   4.571  13.741  0.00  0.00    +0.000 A 
ATOM      6  C   UNL     1      47.136   5.868  13.313  0.00  0.00    +0.000 A 
ENDROOT
BRANCH   6   7
ATOM      7  C   UNL     1      48.477   6.418  13.653  0.00  0.00    +0.000 C 
ATOM      8  N   UNL     1      49.277   6.856  12.641  0.00  0.00    +0.000 N 
ATOM      9  O   UNL     1      48.864   6.482  14.815  0.00  0.00    +0.000 OA
ATOM     10  H   UNL     1      49.002   6.772  11.670  0.00  0.00    +0.000 HD
ATOM     11  H   UNL     1      50.194   7.212  12.872  0.00  0.00    +0.000 HD
ENDBRANCH   6   7
BRANCH   1  13
ATOM     12  C   UNL     1      45.883   8.887  12.969  0.00  0.00    +0.000 C 
ATOM     13  O   UNL     1      46.368   7.811  12.172  0.00  0.00    +0.000 OA
ENDBRANCH   1  13
BRANCH   3  14
ATOM     14  O   UNL     1      43.540   3.946  12.616  0.00  0.00    +0.000 OA
BRANCH  14  15
ATOM     15  C   UNL     1      43.272   3.839  11.210  0.00  0.00    +0.000 C 
BRANCH  15  16
ATOM     16  C   UNL     1      43.928   2.582  10.639  0.00  0.00    +0.000 C 
BRANCH  16  17
ATOM     17  C   UNL     1      44.822   2.929   9.473  0.00  0.00    +0.000 A 
ATOM     18  C   UNL     1      45.016   4.262   9.091  0.00  0.00    +0.000 A 
ATOM     19  C   UNL     1      45.897   4.581   8.058  0.00  0.00    +0.000 A 
ATOM     20  C   UNL     1      46.608   3.574   7.404  0.00  0.00    +0.000 A 
ATOM     21  C   UNL     1      46.446   2.233   7.778  0.00  0.00    +0.000 A 
ATOM     22  C   UNL     1      45.538   1.923   8.807  0.00  0.00    +0.000 A 
BRANCH  21  23
ATOM     23  C   UNL     1      47.224   1.139   7.092  0.00  0.00    +0.000 C 
BRANCH  23  24
ATOM     24  N   UNL     1      48.336   1.678   6.318  0.00  0.00    +0.000 NA
ATOM     25  H   UNL     1      49.104   1.891   6.953  0.00  0.00    +0.000 HD
ATOM     26  H   UNL     1      48.056   2.560   5.894  0.00  0.00    +0.000 HD
ENDBRANCH  23  24
ENDBRANCH  21  23
ENDBRANCH  16  17
ENDBRANCH  15  16
ENDBRANCH  14  15
ENDBRANCH   3  14
TORSDOF 8
ENDMDL
MODEL 2
REMARK VINA RESULT:    -7.132      1.119      1.917
REMARK INTER + INTRA:         -11.393
REMARK INTER:                 -10.368
REMARK INTRA:                  -1.025
REMARK UNBOUND:                -1.134
REMARK  Name = 
REMARK  9 active torsions:
REMARK  status: ('A' for Active; 'I' for Inactive)
REMARK    1  A    between atoms: C_1  and  O_2
REMARK    2  A    between atoms: O_2  and  C_3
REMARK    3  A    between atoms: C_5  and  O_6
REMARK    4  A    between atoms: O_6  and  C_7
REMARK    5  A    between atoms: C_7  and  C_8
REMARK    6  A    between atoms: C_8  and  C_9
REMARK    7  A    between atoms: C_13  and  C_14
REMARK    8  A    between atoms: C_14  and  N_15
REMARK    9  A    between atoms: C_19  and  C_20
REMARK                            x       y       z     vdW  Elec       q    Type
REMARK                         _______ _______ _______ _____ _____    ______ ____
ROOT
ATOM      1  C   UNL     1      47.053   5.334  13.842  0.00  0.00    +0.000 A 
ATOM      2  C   UNL     1      45.853   4.621  13.710  0.00  0.00    +0.000 A 
ATOM      3  C   UNL     1      44.900   5.078  12.811  0.00  0.00    +0.000 A 
ATOM      4  N   UNL     1      45.063   6.182  12.059  0.00  0.00    +0.000 NA
ATOM      5  C   UNL     1      46.221   6.864  12.209  0.00  0.00    +0.000 A 
ATOM      6  C   UNL     1      47.242   6.497  13.077  0.00  0.00    +0.000 A 
ENDROOT
BRANCH   6   7
ATOM      7  C   UNL     1      48.446   7.372  13.087  0.00  0.00    +0.000 C 
ATOM      8  N   UNL     1      49.616   6.877  12.597  0.00  0.00    +0.000 N 
ATOM      9  O   UNL     1      48.397   8.519  13.521  0.00  0.00    +0.000 OA
ATOM     10  H   UNL     1      49.695   5.919  12.274  0.00  0.00    +0.000 HD
ATOM     11  H   UNL     1      50.436   7.466  12.620  0.00  0.00    +0.000 HD
ENDBRANCH   6   7
BRANCH   1  13
ATOM     12  C   UNL     1      47.633   4.628  16.043  0.00  0.00    +0.000 C 
ATOM     13  O   UNL     1      48.043   4.978  14.725  0.00  0.00    +0.000 OA
ENDBRANCH   1  13
BRANCH   3  14
ATOM     14  O   UNL     1      43.726   4.351  12.699  0.00  0.00    +0.000 OA
BRANCH  14  15
ATOM     15  C   UNL     1      43.322   4.200  11.330  0.00  0.00    +0.000 C 
BRANCH  15  16
ATOM     16  C   UNL     1      43.811   2.861  10.777  0.00  0.00    +0.000 C 
BRANCH  16  17
ATOM     17  C   UNL     1      44.715   3.073   9.587  0.00  0.00    +0.000 A 
ATOM     18  C   UNL     1      44.975   4.362   9.105  0.00  0.00    +0.000 A 
ATOM     19  C   UNL     1      45.865   4.556   8.050  0.00  0.00    +0.000 A 
ATOM     20  C   UNL     1      46.520   3.467   7.472  0.00  0.00    +0.000 A 
ATOM     21  C   UNL     1      46.291   2.169   7.947  0.00  0.00    +0.000 A 
ATOM     22  C   UNL     1      45.375   1.983   8.998  0.00  0.00    +0.000 A 
BRANCH  21  23
ATOM     23  C   UNL     1      47.009   0.987   7.345  0.00  0.00    +0.000 C 
BRANCH  23  24
ATOM     24  N   UNL     1      48.129   1.409   6.511  0.00  0.00    +0.000 NA
ATOM     25  H   UNL     1      47.767   1.944   5.722  0.00  0.00    +0.000 HD
ATOM     26  H   UNL     1      48.587   0.589   6.120  0.00  0.00    +0.000 HD
ENDBRANCH  23  24
ENDBRANCH  21  23
ENDBRANCH  16  17
ENDBRANCH  15  16
ENDBRANCH  14  15
ENDBRANCH   3  14
TORSDOF 8
ENDMDL
MODEL 3
REMARK VINA RESULT:    -6.865      1.758      2.487
REMARK INTER + INTRA:         -11.009
REMARK INTER:                 -10.162
REMARK INTRA:                  -0.848
REMARK UNBOUND:                -1.134
REMARK  Name = 
REMARK  9 active torsions:
REMARK  status: ('A' for Active; 'I' for Inactive)
REMARK    1  A    between atoms: C_1  and  O_2
REMARK    2  A    between atoms: O_2  and  C_3
REMARK    3  A    between atoms: C_5  and  O_6
REMARK    4  A    between atoms: O_6  and  C_7
REMARK    5  A    between atoms: C_7  and  C_8
REMARK    6  A    between atoms: C_8  and  C_9
REMARK    7  A    between atoms: C_13  and  C_14
REMARK    8  A    between atoms: C_14  and  N_15
REMARK    9  A    between atoms: C_19  and  C_20
REMARK                            x       y       z     vdW  Elec       q    Type
REMARK                         _______ _______ _______ _____ _____    ______ ____
ROOT
ATOM      1  C   UNL     1      47.209   5.954  13.759  0.00  0.00    +0.000 A 
ATOM      2  C   UNL     1      46.607   6.227  12.522  0.00  0.00    +0.000 A 
ATOM      3  C   UNL     1      45.790   5.262  11.950  0.00  0.00    +0.000 A 
ATOM      4  N   UNL     1      45.550   4.065  12.518  0.00  0.00    +0.000 NA
ATOM      5  C   UNL     1      46.150   3.815  13.703  0.00  0.00    +0.000 A 
ATOM      6  C   UNL     1      46.984   4.708  14.365  0.00  0.00    +0.000 A 
ENDROOT
BRANCH   6   7
ATOM      7  C   UNL     1      47.536   4.250  15.670  0.00  0.00    +0.000 C 
ATOM      8  N   UNL     1      47.493   5.102  16.731  0.00  0.00    +0.000 N 
ATOM      9  O   UNL     1      48.020   3.130  15.800  0.00  0.00    +0.000 OA
ATOM     10  H   UNL     1      47.141   6.047  16.641  0.00  0.00    +0.000 HD
ATOM     11  H   UNL     1      47.885   4.796  17.611  0.00  0.00    +0.000 HD
ENDBRANCH   6   7
BRANCH   1  13
ATOM     12  C   UNL     1      49.226   7.221  13.677  0.00  0.00    +0.000 C 
ATOM     13  O   UNL     1      48.056   6.832  14.390  0.00  0.00    +0.000 OA
ENDBRANCH   1  13
BRANCH   3  14
ATOM     14  O   UNL     1      45.206   5.562  10.730  0.00  0.00    +0.000 OA
BRANCH  14  15
ATOM     15  C   UNL     1      44.216   4.590  10.362  0.00  0.00    +0.000 C 
BRANCH  15  16
ATOM     16  C   UNL     1      44.156   4.443   8.841  0.00  0.00    +0.000 C 
BRANCH  16  17
ATOM     17  C   UNL     1      45.084   3.348   8.374  0.00  0.00    +0.000 A 
ATOM     18  C   UNL     1      45.071   2.088   8.985  0.00  0.00    +0.000 A 
ATOM     19  C   UNL     1      45.880   1.060   8.504  0.00  0.00    +0.000 A 
ATOM     20  C   UNL     1      46.701   1.271   7.395  0.00  0.00    +0.000 A 
ATOM     21  C   UNL     1      46.721   2.517   6.754  0.00  0.00    +0.000 A 
ATOM     22  C   UNL     1      45.916   3.553   7.262  0.00  0.00    +0.000 A 
BRANCH  21  23
ATOM     23  C   UNL     1      47.589   2.751   5.544  0.00  0.00    +0.000 C 
BRANCH  23  24
ATOM     24  N   UNL     1      48.597   1.707   5.398  0.00  0.00    +0.000 NA
ATOM     25  H   UNL     1      49.517   2.116   5.558  0.00  0.00    +0.000 HD
ATOM     26  H   UNL     1      48.593   1.366   4.439  0.00  0.00    +0.000 HD
ENDBRANCH  23  24
ENDBRANCH  21  23
ENDBRANCH  16  17
ENDBRANCH  15  16
ENDBRANCH  14  15
ENDBRANCH   3  14
TORSDOF 8
ENDMDL
MODEL 4
REMARK VINA RESULT:    -6.799      2.974      6.715
REMARK INTER + INTRA:         -10.914
REMARK INTER:                  -9.985
REMARK INTRA:                  -0.929
REMARK UNBOUND:                -1.134
REMARK  Name = 
REMARK  9 active torsions:
REMARK  status: ('A' for Active; 'I' for Inactive)
REMARK    1  A    between atoms: C_1  and  O_2
REMARK    2  A    between atoms: O_2  and  C_3
REMARK    3  A    between atoms: C_5  and  O_6
REMARK    4  A    between atoms: O_6  and  C_7
REMARK    5  A    between atoms: C_7  and  C_8
REMARK    6  A    between atoms: C_8  and  C_9
REMARK    7  A    between atoms: C_13  and  C_14
REMARK    8  A    between atoms: C_14  and  N_15
REMARK    9  A    between atoms: C_19  and  C_20
REMARK                            x       y       z     vdW  Elec       q    Type
REMARK                         _______ _______ _______ _____ _____    ______ ____
ROOT
ATOM      1  C   UNL     1      46.203   1.709   8.191  0.00  0.00    +0.000 A 
ATOM      2  C   UNL     1      45.217   1.953   9.156  0.00  0.00    +0.000 A 
ATOM      3  C   UNL     1      44.568   3.179   9.153  0.00  0.00    +0.000 A 
ATOM      4  N   UNL     1      44.843   4.158   8.271  0.00  0.00    +0.000 NA
ATOM      5  C   UNL     1      45.806   3.910   7.355  0.00  0.00    +0.000 A 
ATOM      6  C   UNL     1      46.517   2.719   7.267  0.00  0.00    +0.000 A 
ENDROOT
BRANCH   6   7
ATOM      7  C   UNL     1      47.528   2.634   6.178  0.00  0.00    +0.000 C 
ATOM      8  N   UNL     1      48.830   2.412   6.512  0.00  0.00    +0.000 N 
ATOM      9  O   UNL     1      47.209   2.759   5.000  0.00  0.00    +0.000 OA
ATOM     10  H   UNL     1      49.128   2.351   7.479  0.00  0.00    +0.000 HD
ATOM     11  H   UNL     1      49.517   2.373   5.773  0.00  0.00    +0.000 HD
ENDBRANCH   6   7
BRANCH   1  13
ATOM     12  C   UNL     1      46.363  -0.517   7.353  0.00  0.00    +0.000 C 
ATOM     13  O   UNL     1      46.920   0.538   8.131  0.00  0.00    +0.000 OA
ENDBRANCH   1  13
BRANCH   3  14
ATOM     14  O   UNL     1      43.596   3.390  10.117  0.00  0.00    +0.000 OA
BRANCH  14  15
ATOM     15  C   UNL     1      43.925   2.743  11.355  0.00  0.00    +0.000 C 
BRANCH  15  16
ATOM     16  C   UNL     1      43.573   3.648  12.537  0.00  0.00    +0.000 C 
BRANCH  16  17
ATOM     17  C   UNL     1      44.583   4.763  12.675  0.00  0.00    +0.000 A 
ATOM     18  C   UNL     1      45.869   4.508  13.166  0.00  0.00    +0.000 A 
ATOM     19  C   UNL     1      46.818   5.527  13.226  0.00  0.00    +0.000 A 
ATOM     20  C   UNL     1      46.500   6.811  12.780  0.00  0.00    +0.000 A 
ATOM     21  C   UNL     1      45.226   7.089  12.268  0.00  0.00    +0.000 A 
ATOM     22  C   UNL     1      44.271   6.058  12.233  0.00  0.00    +0.000 A 
BRANCH  21  23
ATOM     23  C   UNL     1      44.879   8.467  11.764  0.00  0.00    +0.000 C 
BRANCH  23  24
ATOM     24  N   UNL     1      43.644   8.457  10.987  0.00  0.00    +0.000 NA
ATOM     25  H   UNL     1      43.101   9.286  11.226  0.00  0.00    +0.000 HD
ATOM     26  H   UNL     1      43.082   7.653  11.258  0.00  0.00    +0.000 HD
ENDBRANCH  23  24
ENDBRANCH  21  23
ENDBRANCH  16  17
ENDBRANCH  15  16
ENDBRANCH  14  15
ENDBRANCH   3  14
TORSDOF 8
ENDMDL
MODEL 5
REMARK VINA RESULT:    -6.707      2.823      6.707
REMARK INTER + INTRA:         -10.782
REMARK INTER:                  -9.914
REMARK INTRA:                  -0.868
REMARK UNBOUND:                -1.134
REMARK  Name = 
REMARK  9 active torsions:
REMARK  status: ('A' for Active; 'I' for Inactive)
REMARK    1  A    between atoms: C_1  and  O_2
REMARK    2  A    between atoms: O_2  and  C_3
REMARK    3  A    between atoms: C_5  and  O_6
REMARK    4  A    between atoms: O_6  and  C_7
REMARK    5  A    between atoms: C_7  and  C_8
REMARK    6  A    between atoms: C_8  and  C_9
REMARK    7  A    between atoms: C_13  and  C_14
REMARK    8  A    between atoms: C_14  and  N_15
REMARK    9  A    between atoms: C_19  and  C_20
REMARK                            x       y       z     vdW  Elec       q    Type
REMARK                         _______ _______ _______ _____ _____    ______ ____
ROOT
ATOM      1  C   UNL     1      46.234   1.603   8.143  0.00  0.00    +0.000 A 
ATOM      2  C   UNL     1      45.253   1.702   9.139  0.00  0.00    +0.000 A 
ATOM      3  C   UNL     1      44.478   2.851   9.202  0.00  0.00    +0.000 A 
ATOM      4  N   UNL     1      44.625   3.888   8.357  0.00  0.00    +0.000 NA
ATOM      5  C   UNL     1      45.585   3.781   7.411  0.00  0.00    +0.000 A 
ATOM      6  C   UNL     1      46.415   2.677   7.257  0.00  0.00    +0.000 A 
ENDROOT
BRANCH   6   7
ATOM      7  C   UNL     1      47.402   2.745   6.144  0.00  0.00    +0.000 C 
ATOM      8  N   UNL     1      48.711   2.488   6.416  0.00  0.00    +0.000 N 
ATOM      9  O   UNL     1      47.055   3.024   5.000  0.00  0.00    +0.000 OA
ATOM     10  H   UNL     1      49.032   2.300   7.359  0.00  0.00    +0.000 HD
ATOM     11  H   UNL     1      49.382   2.552   5.663  0.00  0.00    +0.000 HD
ENDBRANCH   6   7
BRANCH   1  13
ATOM     12  C   UNL     1      46.504  -0.667   7.468  0.00  0.00    +0.000 C 
ATOM     13  O   UNL     1      47.069   0.519   8.018  0.00  0.00    +0.000 OA
ENDBRANCH   1  13
BRANCH   3  14
ATOM     14  O   UNL     1      43.514   2.918  10.194  0.00  0.00    +0.000 OA
BRANCH  14  15
ATOM     15  C   UNL     1      44.065   3.363  11.442  0.00  0.00    +0.000 C 
BRANCH  15  16
ATOM     16  C   UNL     1      44.089   4.891  11.497  0.00  0.00    +0.000 C 
BRANCH  16  17
ATOM     17  C   UNL     1      45.432   5.388  11.976  0.00  0.00    +0.000 A 
ATOM     18  C   UNL     1      46.134   6.361  11.254  0.00  0.00    +0.000 A 
ATOM     19  C   UNL     1      47.340   6.866  11.737  0.00  0.00    +0.000 A 
ATOM     20  C   UNL     1      47.853   6.418  12.956  0.00  0.00    +0.000 A 
ATOM     21  C   UNL     1      47.162   5.458  13.706  0.00  0.00    +0.000 A 
ATOM     22  C   UNL     1      45.956   4.940  13.198  0.00  0.00    +0.000 A 
BRANCH  21  23
ATOM     23  C   UNL     1      47.695   4.981  15.033  0.00  0.00    +0.000 C 
BRANCH  23  24
ATOM     24  N   UNL     1      46.694   4.216  15.769  0.00  0.00    +0.000 NA
ATOM     25  H   UNL     1      46.461   3.381  15.231  0.00  0.00    +0.000 HD
ATOM     26  H   UNL     1      45.839   4.762  15.843  0.00  0.00    +0.000 HD
ENDBRANCH  23  24
ENDBRANCH  21  23
ENDBRANCH  16  17
ENDBRANCH  15  16
ENDBRANCH  14  15
ENDBRANCH   3  14
TORSDOF 8
ENDMDL
MODEL 6
REMARK VINA RESULT:    -6.571      4.152      7.440
REMARK INTER + INTRA:         -10.587
REMARK INTER:                  -9.948
REMARK INTRA:                  -0.639
REMARK UNBOUND:                -1.134
REMARK  Name = 
REMARK  9 active torsions:
REMARK  status: ('A' for Active; 'I' for Inactive)
REMARK    1  A    between atoms: C_1  and  O_2
REMARK    2  A    between atoms: O_2  and  C_3
REMARK    3  A    between atoms: C_5  and  O_6
REMARK    4  A    between atoms: O_6  and  C_7
REMARK    5  A    between atoms: C_7  and  C_8
REMARK    6  A    between atoms: C_8  and  C_9
REMARK    7  A    between atoms: C_13  and  C_14
REMARK    8  A    between atoms: C_14  and  N_15
REMARK    9  A    between atoms: C_19  and  C_20
REMARK                            x       y       z     vdW  Elec       q    Type
REMARK                         _______ _______ _______ _____ _____    ______ ____
ROOT
ATOM      1  C   UNL     1      45.530   5.930  12.781  0.00  0.00    +0.000 A 
ATOM      2  C   UNL     1      46.462   5.330  13.640  0.00  0.00    +0.000 A 
ATOM      3  C   UNL     1      46.544   3.945  13.673  0.00  0.00    +0.000 A 
ATOM      4  N   UNL     1      45.766   3.141  12.925  0.00  0.00    +0.000 NA
ATOM      5  C   UNL     1      44.865   3.737  12.112  0.00  0.00    +0.000 A 
ATOM      6  C   UNL     1      44.698   5.112  12.000  0.00  0.00    +0.000 A 
ENDROOT
BRANCH   6   7
ATOM      7  C   UNL     1      43.660   5.573  11.037  0.00  0.00    +0.000 C 
ATOM      8  N   UNL     1      43.082   6.790  11.236  0.00  0.00    +0.000 N 
ATOM      9  O   UNL     1      43.326   4.882  10.080  0.00  0.00    +0.000 OA
ATOM     10  H   UNL     1      43.306   7.361  12.042  0.00  0.00    +0.000 HD
ATOM     11  H   UNL     1      42.365   7.094  10.591  0.00  0.00    +0.000 HD
ENDBRANCH   6   7
BRANCH   1  13
ATOM     12  C   UNL     1      46.426   8.106  13.162  0.00  0.00    +0.000 C 
ATOM     13  O   UNL     1      45.354   7.290  12.699  0.00  0.00    +0.000 OA
ENDBRANCH   1  13
BRANCH   3  14
ATOM     14  O   UNL     1      47.477   3.381  14.528  0.00  0.00    +0.000 OA
BRANCH  14  15
ATOM     15  C   UNL     1      47.319   3.855  15.874  0.00  0.00    +0.000 C 
BRANCH  15  16
ATOM     16  C   UNL     1      47.919   2.854  16.862  0.00  0.00    +0.000 C 
BRANCH  16  17
ATOM     17  C   UNL     1      49.365   3.186  17.146  0.00  0.00    +0.000 A 
ATOM     18  C   UNL     1      49.768   4.510  17.355  0.00  0.00    +0.000 A 
ATOM     19  C   UNL     1      51.091   4.802  17.685  0.00  0.00    +0.000 A 
ATOM     20  C   UNL     1      52.024   3.774  17.828  0.00  0.00    +0.000 A 
ATOM     21  C   UNL     1      51.643   2.439  17.641  0.00  0.00    +0.000 A 
ATOM     22  C   UNL     1      50.311   2.159  17.287  0.00  0.00    +0.000 A 
BRANCH  21  23
ATOM     23  C   UNL     1      52.637   1.319  17.813  0.00  0.00    +0.000 C 
BRANCH  23  24
ATOM     24  N   UNL     1      51.991   0.095  18.273  0.00  0.00    +0.000 NA
ATOM     25  H   UNL     1      52.577  -0.336  18.987  0.00  0.00    +0.000 HD
ATOM     26  H   UNL     1      51.936  -0.568  17.502  0.00  0.00    +0.000 HD
ENDBRANCH  23  24
ENDBRANCH  21  23
ENDBRANCH  16  17
ENDBRANCH  15  16
ENDBRANCH  14  15
ENDBRANCH   3  14
TORSDOF 8
ENDMDL
MODEL 7
REMARK VINA RESULT:    -6.560      2.540      6.227
REMARK INTER + INTRA:         -10.570
REMARK INTER:                 -10.138
REMARK INTRA:                  -0.432
REMARK UNBOUND:                -1.134
REMARK  Name = 
REMARK  9 active torsions:
REMARK  status: ('A' for Active; 'I' for Inactive)
REMARK    1  A    between atoms: C_1  and  O_2
REMARK    2  A    between atoms: O_2  and  C_3
REMARK    3  A    between atoms: C_5  and  O_6
REMARK    4  A    between atoms: O_6  and  C_7
REMARK    5  A    between atoms: C_7  and  C_8
REMARK    6  A    between atoms: C_8  and  C_9
REMARK    7  A    between atoms: C_13  and  C_14
REMARK    8  A    between atoms: C_14  and  N_15
REMARK    9  A    between atoms: C_19  and  C_20
REMARK                            x       y       z     vdW  Elec       q    Type
REMARK                         _______ _______ _______ _____ _____    ______ ____
ROOT
ATOM      1  C   UNL     1      46.136   3.369   7.869  0.00  0.00    +0.000 A 
ATOM      2  C   UNL     1      45.266   4.304   8.447  0.00  0.00    +0.000 A 
ATOM      3  C   UNL     1      44.346   3.868   9.388  0.00  0.00    +0.000 A 
ATOM      4  N   UNL     1      44.236   2.582   9.773  0.00  0.00    +0.000 NA
ATOM      5  C   UNL     1      45.073   1.692   9.195  0.00  0.00    +0.000 A 
ATOM      6  C   UNL     1      46.032   2.020   8.244  0.00  0.00    +0.000 A 
ENDROOT
BRANCH   6   7
ATOM      7  C   UNL     1      46.868   0.897   7.738  0.00  0.00    +0.000 C 
ATOM      8  N   UNL     1      48.081   1.183   7.189  0.00  0.00    +0.000 N 
ATOM      9  O   UNL     1      46.486  -0.266   7.811  0.00  0.00    +0.000 OA
ATOM     10  H   UNL     1      48.402   2.138   7.075  0.00  0.00    +0.000 HD
ATOM     11  H   UNL     1      48.640   0.422   6.830  0.00  0.00    +0.000 HD
ENDBRANCH   6   7
BRANCH   1  13
ATOM     12  C   UNL     1      46.687   3.472   5.552  0.00  0.00    +0.000 C 
ATOM     13  O   UNL     1      47.060   3.699   6.907  0.00  0.00    +0.000 OA
ENDBRANCH   1  13
BRANCH   3  14
ATOM     14  O   UNL     1      43.503   4.815   9.945  0.00  0.00    +0.000 OA
BRANCH  14  15
ATOM     15  C   UNL     1      42.955   4.370  11.195  0.00  0.00    +0.000 C 
BRANCH  15  16
ATOM     16  C   UNL     1      43.061   5.477  12.245  0.00  0.00    +0.000 C 
BRANCH  16  17
ATOM     17  C   UNL     1      44.506   5.836  12.497  0.00  0.00    +0.000 A 
ATOM     18  C   UNL     1      45.081   6.960  11.892  0.00  0.00    +0.000 A 
ATOM     19  C   UNL     1      46.395   7.326  12.184  0.00  0.00    +0.000 A 
ATOM     20  C   UNL     1      47.146   6.583  13.096  0.00  0.00    +0.000 A 
ATOM     21  C   UNL     1      46.589   5.464  13.729  0.00  0.00    +0.000 A 
ATOM     22  C   UNL     1      45.270   5.093  13.410  0.00  0.00    +0.000 A 
BRANCH  21  23
ATOM     23  C   UNL     1      47.383   4.667  14.732  0.00  0.00    +0.000 C 
BRANCH  23  24
ATOM     24  N   UNL     1      47.405   3.248  14.391  0.00  0.00    +0.000 NA
ATOM     25  H   UNL     1      48.199   2.812  14.859  0.00  0.00    +0.000 HD
ATOM     26  H   UNL     1      47.564   3.144  13.391  0.00  0.00    +0.000 HD
ENDBRANCH  23  24
ENDBRANCH  21  23
ENDBRANCH  16  17
ENDBRANCH  15  16
ENDBRANCH  14  15
ENDBRANCH   3  14
TORSDOF 8
ENDMDL
MODEL 8
REMARK VINA RESULT:    -6.072      4.344      7.616
REMARK INTER + INTRA:          -9.869
REMARK INTER:                  -9.234
REMARK INTRA:                  -0.635
REMARK UNBOUND:                -1.134
REMARK  Name = 
REMARK  9 active torsions:
REMARK  status: ('A' for Active; 'I' for Inactive)
REMARK    1  A    between atoms: C_1  and  O_2
REMARK    2  A    between atoms: O_2  and  C_3
REMARK    3  A    between atoms: C_5  and  O_6
REMARK    4  A    between atoms: O_6  and  C_7
REMARK    5  A    between atoms: C_7  and  C_8
REMARK    6  A    between atoms: C_8  and  C_9
REMARK    7  A    between atoms: C_13  and  C_14
REMARK    8  A    between atoms: C_14  and  N_15
REMARK    9  A    between atoms: C_19  and  C_20
REMARK                            x       y       z     vdW  Elec       q    Type
REMARK                         _______ _______ _______ _____ _____    ______ ____
ROOT
ATOM      1  C   UNL     1      45.072   4.585  12.169  0.00  0.00    +0.000 A 
ATOM      2  C   UNL     1      45.809   3.657  12.917  0.00  0.00    +0.000 A 
ATOM      3  C   UNL     1      46.771   4.124  13.801  0.00  0.00    +0.000 A 
ATOM      4  N   UNL     1      47.043   5.431  13.973  0.00  0.00    +0.000 NA
ATOM      5  C   UNL     1      46.331   6.311  13.234  0.00  0.00    +0.000 A 
ATOM      6  C   UNL     1      45.345   5.954  12.322  0.00  0.00    +0.000 A 
ENDROOT
BRANCH   6   7
ATOM      7  C   UNL     1      44.664   7.073  11.616  0.00  0.00    +0.000 C 
ATOM      8  N   UNL     1      43.365   6.913  11.240  0.00  0.00    +0.000 N 
ATOM      9  O   UNL     1      45.249   8.125  11.373  0.00  0.00    +0.000 OA
ATOM     10  H   UNL     1      42.872   6.040  11.387  0.00  0.00    +0.000 HD
ATOM     11  H   UNL     1      42.910   7.668  10.745  0.00  0.00    +0.000 HD
ENDBRANCH   6   7
BRANCH   1  13
ATOM     12  C   UNL     1      43.307   3.096  11.576  0.00  0.00    +0.000 C 
ATOM     13  O   UNL     1      44.120   4.219  11.248  0.00  0.00    +0.000 OA
ENDBRANCH   1  13
BRANCH   3  14
ATOM     14  O   UNL     1      47.481   3.183  14.529  0.00  0.00    +0.000 OA
BRANCH  14  15
ATOM     15  C   UNL     1      47.655   3.589  15.895  0.00  0.00    +0.000 C 
BRANCH  15  16
ATOM     16  C   UNL     1      48.316   2.470  16.700  0.00  0.00    +0.000 C 
BRANCH  16  17
ATOM     17  C   UNL     1      49.717   2.860  17.107  0.00  0.00    +0.000 A 
ATOM     18  C   UNL     1      50.025   4.186  17.434  0.00  0.00    +0.000 A 
ATOM     19  C   UNL     1      51.302   4.526  17.875  0.00  0.00    +0.000 A 
ATOM     20  C   UNL     1      52.285   3.545  18.011  0.00  0.00    +0.000 A 
ATOM     21  C   UNL     1      51.999   2.207  17.706  0.00  0.00    +0.000 A 
ATOM     22  C   UNL     1      50.712   1.879  17.242  0.00  0.00    +0.000 A 
BRANCH  21  23
ATOM     23  C   UNL     1      53.046   1.135  17.869  0.00  0.00    +0.000 C 
BRANCH  23  24
ATOM     24  N   UNL     1      52.447  -0.152  18.205  0.00  0.00    +0.000 NA
ATOM     25  H   UNL     1      51.647   0.010  18.816  0.00  0.00    +0.000 HD
ATOM     26  H   UNL     1      53.113  -0.705  18.738  0.00  0.00    +0.000 HD
ENDBRANCH  23  24
ENDBRANCH  21  23
ENDBRANCH  16  17
ENDBRANCH  15  16
ENDBRANCH  14  15
ENDBRANCH   3  14
TORSDOF 8
ENDMDL
MODEL 9
REMARK VINA RESULT:    -6.045      3.836      7.642
REMARK INTER + INTRA:          -9.830
REMARK INTER:                  -9.073
REMARK INTRA:                  -0.757
REMARK UNBOUND:                -1.134
REMARK  Name = 
REMARK  9 active torsions:
REMARK  status: ('A' for Active; 'I' for Inactive)
REMARK    1  A    between atoms: C_1  and  O_2
REMARK    2  A    between atoms: O_2  and  C_3
REMARK    3  A    between atoms: C_5  and  O_6
REMARK    4  A    between atoms: O_6  and  C_7
REMARK    5  A    between atoms: C_7  and  C_8
REMARK    6  A    between atoms: C_8  and  C_9
REMARK    7  A    between atoms: C_13  and  C_14
REMARK    8  A    between atoms: C_14  and  N_15
REMARK    9  A    between atoms: C_19  and  C_20
REMARK                            x       y       z     vdW  Elec       q    Type
REMARK                         _______ _______ _______ _____ _____    ______ ____
ROOT
ATOM      1  C   UNL     1      45.247   5.859  12.819  0.00  0.00    +0.000 A 
ATOM      2  C   UNL     1      46.231   5.357  13.682  0.00  0.00    +0.000 A 
ATOM      3  C   UNL     1      46.457   3.988  13.712  0.00  0.00    +0.000 A 
ATOM      4  N   UNL     1      45.772   3.110  12.957  0.00  0.00    +0.000 NA
ATOM      5  C   UNL     1      44.818   3.611  12.140  0.00  0.00    +0.000 A 
ATOM      6  C   UNL     1      44.510   4.962  12.030  0.00  0.00    +0.000 A 
ENDROOT
BRANCH   6   7
ATOM      7  C   UNL     1      43.436   5.316  11.061  0.00  0.00    +0.000 C 
ATOM      8  N   UNL     1      42.455   6.172  11.460  0.00  0.00    +0.000 N 
ATOM      9  O   UNL     1      43.425   4.855   9.924  0.00  0.00    +0.000 OA
ATOM     10  H   UNL     1      42.414   6.532  12.406  0.00  0.00    +0.000 HD
ATOM     11  H   UNL     1      41.717   6.397  10.807  0.00  0.00    +0.000 HD
ENDBRANCH   6   7
BRANCH   1  13
ATOM     12  C   UNL     1      45.909   8.053  12.162  0.00  0.00    +0.000 C 
ATOM     13  O   UNL     1      44.931   7.194  12.740  0.00  0.00    +0.000 OA
ENDBRANCH   1  13
BRANCH   3  14
ATOM     14  O   UNL     1      47.437   3.521  14.572  0.00  0.00    +0.000 OA
BRANCH  14  15
ATOM     15  C   UNL     1      47.410   4.208  15.832  0.00  0.00    +0.000 C 
BRANCH  15  16
ATOM     16  C   UNL     1      47.614   3.219  16.980  0.00  0.00    +0.000 C 
BRANCH  16  17
ATOM     17  C   UNL     1      49.081   3.082  17.314  0.00  0.00    +0.000 A 
ATOM     18  C   UNL     1      49.787   1.922  16.976  0.00  0.00    +0.000 A 
ATOM     19  C   UNL     1      51.155   1.829  17.224  0.00  0.00    +0.000 A 
ATOM     20  C   UNL     1      51.841   2.902  17.797  0.00  0.00    +0.000 A 
ATOM     21  C   UNL     1      51.161   4.082  18.129  0.00  0.00    +0.000 A 
ATOM     22  C   UNL     1      49.776   4.155  17.894  0.00  0.00    +0.000 A 
BRANCH  21  23
ATOM     23  C   UNL     1      51.894   5.254  18.729  0.00  0.00    +0.000 C 
BRANCH  23  24
ATOM     24  N   UNL     1      52.182   6.275  17.728  0.00  0.00    +0.000 NA
ATOM     25  H   UNL     1      52.088   5.860  16.802  0.00  0.00    +0.000 HD
ATOM     26  H   UNL     1      53.152   6.571  17.817  0.00  0.00    +0.000 HD
ENDBRANCH  23  24
ENDBRANCH  21  23
ENDBRANCH  16  17
ENDBRANCH  15  16
ENDBRANCH  14  15
ENDBRANCH   3  14
TORSDOF 8
ENDMDL
