MODEL 1
REMARK VINA RESULT:    -7.219      0.000      0.000
REMARK INTER + INTRA:         -11.195
REMARK INTER:                 -10.174
REMARK INTRA:                  -1.021
REMARK UNBOUND:                -1.021
REMARK  Name = 
REMARK  9 active torsions:
REMARK  status: ('A' for Active; 'I' for Inactive)
REMARK    1  A    between atoms: C_1  and  C_2
REMARK    2  A    between atoms: C_4  and  C_5
REMARK    3  A    between atoms: C_5  and  O_7
REMARK    4  A    between atoms: C_10  and  O_11
REMARK    5  A    between atoms: O_11  and  C_12
REMARK    6  A    between atoms: C_12  and  C_13
REMARK    7  A    between atoms: C_13  and  C_14
REMARK    8  A    between atoms: C_18  and  C_19
REMARK    9  A    between atoms: C_19  and  N_20
REMARK                            x       y       z     vdW  Elec       q    Type
REMARK                         _______ _______ _______ _____ _____    ______ ____
ROOT
ATOM      1  O   UNL     1      44.031   3.741  12.622  0.00  0.00    +0.000 OA
ENDROOT
BRANCH   1   8
ATOM      2  C   UNL     1      46.678   3.406  13.502  0.00  0.00    +0.000 C 
ATOM      3  C   UNL     1      46.095   4.761  13.188  0.00  0.00    +0.000 A 
ATOM      4  C   UNL     1      46.902   5.905  13.344  0.00  0.00    +0.000 A 
ATOM      5  C   UNL     1      46.397   7.176  13.043  0.00  0.00    +0.000 A 
ATOM      6  C   UNL     1      45.104   7.296  12.538  0.00  0.00    +0.000 A 
ATOM      7  C   UNL     1      44.302   6.163  12.369  0.00  0.00    +0.000 A 
ATOM      8  C   UNL     1      44.779   4.891  12.699  0.00  0.00    +0.000 A 
BRANCH   5   9
ATOM      9  C   UNL     1      47.198   8.414  13.211  0.00  0.00    +0.000 C 
ATOM     10  O   UNL     1      47.825   8.925  12.299  0.00  0.00    +0.000 OA
BRANCH   9  11
ATOM     11  O   UNL     1      47.120   8.953  14.445  0.00  0.00    +0.000 OA
ATOM     12  H   UNL     1      47.261   8.327  15.178  0.00  0.00    +0.000 HD
ENDBRANCH   9  11
ENDBRANCH   5   9
ENDBRANCH   1   8
BRANCH   1  13
ATOM     13  C   UNL     1      43.296   3.511  11.413  0.00  0.00    +0.000 C 
BRANCH  13  14
ATOM     14  C   UNL     1      43.990   2.455  10.539  0.00  0.00    +0.000 C 
BRANCH  14  15
ATOM     15  C   UNL     1      44.931   2.940   9.451  0.00  0.00    +0.000 A 
ATOM     16  C   UNL     1      45.123   4.289   9.131  0.00  0.00    +0.000 A 
ATOM     17  C   UNL     1      45.984   4.660   8.095  0.00  0.00    +0.000 A 
ATOM     18  C   UNL     1      46.669   3.691   7.361  0.00  0.00    +0.000 A 
ATOM     19  C   UNL     1      46.510   2.335   7.667  0.00  0.00    +0.000 A 
ATOM     20  C   UNL     1      45.641   1.975   8.711  0.00  0.00    +0.000 A 
BRANCH  19  21
ATOM     21  C   UNL     1      47.240   1.279   6.875  0.00  0.00    +0.000 C 
BRANCH  21  22
ATOM     22  N   UNL     1      48.444   1.811   6.247  0.00  0.00    +0.000 NA
ATOM     23  H   UNL     1      48.921   2.412   6.916  0.00  0.00    +0.000 HD
ATOM     24  H   UNL     1      48.177   2.404   5.465  0.00  0.00    +0.000 HD
ENDBRANCH  21  22
ENDBRANCH  19  21
ENDBRANCH  14  15
ENDBRANCH  13  14
ENDBRANCH   1  13
TORSDOF 8
ENDMDL
MODEL 2
REMARK VINA RESULT:    -7.151      3.344      6.524
REMARK INTER + INTRA:         -11.099
REMARK INTER:                  -9.985
REMARK INTRA:                  -1.114
REMARK UNBOUND:                -1.021
REMARK  Name = 
REMARK  9 active torsions:
REMARK  status: ('A' for Active; 'I' for Inactive)
REMARK    1  A    between atoms: C_1  and  C_2
REMARK    2  A    between atoms: C_4  and  C_5
REMARK    3  A    between atoms: C_5  and  O_7
REMARK    4  A    between atoms: C_10  and  O_11
REMARK    5  A    between atoms: O_11  and  C_12
REMARK    6  A    between atoms: C_12  and  C_13
REMARK    7  A    between atoms: C_13  and  C_14
REMARK    8  A    between atoms: C_18  and  C_19
REMARK    9  A    between atoms: C_19  and  N_20
REMARK                            x       y       z     vdW  Elec       q    Type
REMARK                         _______ _______ _______ _____ _____    ______ ____
ROOT
ATOM      1  O   UNL     1      43.587   3.664  10.513  0.00  0.00    +0.000 OA
ENDROOT
BRANCH   1   8
ATOM      2  C   UNL     1      45.203   5.732   9.513  0.00  0.00    +0.000 C 
ATOM      3  C   UNL     1      45.335   4.304   9.046  0.00  0.00    +0.000 A 
ATOM      4  C   UNL     1      46.300   3.991   8.068  0.00  0.00    +0.000 A 
ATOM      5  C   UNL     1      46.461   2.672   7.627  0.00  0.00    +0.000 A 
ATOM      6  C   UNL     1      45.693   1.660   8.200  0.00  0.00    +0.000 A 
ATOM      7  C   UNL     1      44.741   1.962   9.179  0.00  0.00    +0.000 A 
ATOM      8  C   UNL     1      44.543   3.280   9.604  0.00  0.00    +0.000 A 
BRANCH   5   9
ATOM      9  C   UNL     1      47.447   2.292   6.585  0.00  0.00    +0.000 C 
ATOM     10  O   UNL     1      48.183   1.326   6.691  0.00  0.00    +0.000 OA
BRANCH   9  11
ATOM     11  O   UNL     1      47.413   3.077   5.488  0.00  0.00    +0.000 OA
ATOM     12  H   UNL     1      48.107   3.760   5.448  0.00  0.00    +0.000 HD
ENDBRANCH   9  11
ENDBRANCH   5   9
ENDBRANCH   1   8
BRANCH   1  13
ATOM     13  C   UNL     1      43.513   2.932  11.744  0.00  0.00    +0.000 C 
BRANCH  13  14
ATOM     14  C   UNL     1      43.621   3.875  12.952  0.00  0.00    +0.000 C 
BRANCH  14  15
ATOM     15  C   UNL     1      44.827   4.795  13.030  0.00  0.00    +0.000 A 
ATOM     16  C   UNL     1      46.126   4.354  13.309  0.00  0.00    +0.000 A 
ATOM     17  C   UNL     1      47.183   5.263  13.397  0.00  0.00    +0.000 A 
ATOM     18  C   UNL     1      46.962   6.628  13.206  0.00  0.00    +0.000 A 
ATOM     19  C   UNL     1      45.678   7.098  12.911  0.00  0.00    +0.000 A 
ATOM     20  C   UNL     1      44.623   6.173  12.826  0.00  0.00    +0.000 A 
BRANCH  19  21
ATOM     21  C   UNL     1      45.427   8.571  12.711  0.00  0.00    +0.000 C 
BRANCH  21  22
ATOM     22  N   UNL     1      44.329   8.811  11.782  0.00  0.00    +0.000 NA
ATOM     23  H   UNL     1      44.215   9.817  11.666  0.00  0.00    +0.000 HD
ATOM     24  H   UNL     1      43.464   8.468  12.194  0.00  0.00    +0.000 HD
ENDBRANCH  21  22
ENDBRANCH  19  21
ENDBRANCH  14  15
ENDBRANCH  13  14
ENDBRANCH   1  13
TORSDOF 8
ENDMDL
MODEL 3
REMARK VINA RESULT:    -6.984      0.709      1.637
REMARK INTER + INTRA:         -10.863
REMARK INTER:                  -9.702
REMARK INTRA:                  -1.161
REMARK UNBOUND:                -1.021
REMARK  Name = 
REMARK  9 active torsions:
REMARK  status: ('A' for Active; 'I' for Inactive)
REMARK    1  A    between atoms: C_1  and  C_2
REMARK    2  A    between atoms: C_4  and  C_5
REMARK    3  A    between atoms: C_5  and  O_7
REMARK    4  A    between atoms: C_10  and  O_11
REMARK    5  A    between atoms: O_11  and  C_12
REMARK    6  A    between atoms: C_12  and  C_13
REMARK    7  A    between atoms: C_13  and  C_14
REMARK    8  A    between atoms: C_18  and  C_19
REMARK    9  A    between atoms: C_19  and  N_20
REMARK                            x       y       z     vdW  Elec       q    Type
REMARK                         _______ _______ _______ _____ _____    ______ ____
ROOT
ATOM      1  O   UNL     1      44.020   3.803  12.757  0.00  0.00    +0.000 OA
ENDROOT
BRANCH   1   8
ATOM      2  C   UNL     1      42.805   6.027  11.544  0.00  0.00    +0.000 C 
ATOM      3  C   UNL     1      44.206   6.074  12.102  0.00  0.00    +0.000 A 
ATOM      4  C   UNL     1      44.938   7.274  12.010  0.00  0.00    +0.000 A 
ATOM      5  C   UNL     1      46.234   7.356  12.534  0.00  0.00    +0.000 A 
ATOM      6  C   UNL     1      46.776   6.255  13.195  0.00  0.00    +0.000 A 
ATOM      7  C   UNL     1      46.050   5.065  13.301  0.00  0.00    +0.000 A 
ATOM      8  C   UNL     1      44.769   4.955  12.750  0.00  0.00    +0.000 A 
BRANCH   5   9
ATOM      9  C   UNL     1      47.056   8.588  12.444  0.00  0.00    +0.000 C 
ATOM     10  O   UNL     1      48.133   8.625  11.874  0.00  0.00    +0.000 OA
BRANCH   9  11
ATOM     11  O   UNL     1      46.477   9.674  12.997  0.00  0.00    +0.000 OA
ATOM     12  H   UNL     1      45.523   9.767  12.821  0.00  0.00    +0.000 HD
ENDBRANCH   9  11
ENDBRANCH   5   9
ENDBRANCH   1   8
BRANCH   1  13
ATOM     13  C   UNL     1      44.534   2.676  12.035  0.00  0.00    +0.000 C 
BRANCH  13  14
ATOM     14  C   UNL     1      43.998   2.654  10.596  0.00  0.00    +0.000 C 
BRANCH  14  15
ATOM     15  C   UNL     1      44.945   3.050   9.478  0.00  0.00    +0.000 A 
ATOM     16  C   UNL     1      45.170   4.373   9.078  0.00  0.00    +0.000 A 
ATOM     17  C   UNL     1      46.034   4.660   8.019  0.00  0.00    +0.000 A 
ATOM     18  C   UNL     1      46.689   3.633   7.340  0.00  0.00    +0.000 A 
ATOM     19  C   UNL     1      46.497   2.301   7.725  0.00  0.00    +0.000 A 
ATOM     20  C   UNL     1      45.626   2.026   8.792  0.00  0.00    +0.000 A 
BRANCH  19  21
ATOM     21  C   UNL     1      47.195   1.183   6.993  0.00  0.00    +0.000 C 
BRANCH  21  22
ATOM     22  N   UNL     1      48.361   1.662   6.260  0.00  0.00    +0.000 NA
ATOM     23  H   UNL     1      48.275   1.372   5.287  0.00  0.00    +0.000 HD
ATOM     24  H   UNL     1      49.194   1.205   6.624  0.00  0.00    +0.000 HD
ENDBRANCH  21  22
ENDBRANCH  19  21
ENDBRANCH  14  15
ENDBRANCH  13  14
ENDBRANCH   1  13
TORSDOF 8
ENDMDL
MODEL 4
REMARK VINA RESULT:    -6.424      3.772      7.009
REMARK INTER + INTRA:         -10.074
REMARK INTER:                  -9.370
REMARK INTRA:                  -0.704
REMARK UNBOUND:                -1.021
REMARK  Name = 
REMARK  9 active torsions:
REMARK  status: ('A' for Active; 'I' for Inactive)
REMARK    1  A    between atoms: C_1  and  C_2
REMARK    2  A    between atoms: C_4  and  C_5
REMARK    3  A    between atoms: C_5  and  O_7
REMARK    4  A    between atoms: C_10  and  O_11
REMARK    5  A    between atoms: O_11  and  C_12
REMARK    6  A    between atoms: C_12  and  C_13
REMARK    7  A    between atoms: C_13  and  C_14
REMARK    8  A    between atoms: C_18  and  C_19
REMARK    9  A    between atoms: C_19  and  N_20
REMARK                            x       y       z     vdW  Elec       q    Type
REMARK                         _______ _______ _______ _____ _____    ______ ____
ROOT
ATOM      1  O   UNL     1      44.298   5.062  10.219  0.00  0.00    +0.000 OA
ENDROOT
BRANCH   1   8
ATOM      2  C   UNL     1      43.973   2.297  10.594  0.00  0.00    +0.000 C 
ATOM      3  C   UNL     1      44.916   2.869   9.566  0.00  0.00    +0.000 A 
ATOM      4  C   UNL     1      45.669   1.988   8.763  0.00  0.00    +0.000 A 
ATOM      5  C   UNL     1      46.539   2.487   7.786  0.00  0.00    +0.000 A 
ATOM      6  C   UNL     1      46.619   3.862   7.578  0.00  0.00    +0.000 A 
ATOM      7  C   UNL     1      45.866   4.742   8.363  0.00  0.00    +0.000 A 
ATOM      8  C   UNL     1      45.020   4.261   9.367  0.00  0.00    +0.000 A 
BRANCH   5   9
ATOM      9  C   UNL     1      47.370   1.604   6.931  0.00  0.00    +0.000 C 
ATOM     10  O   UNL     1      47.040   0.467   6.636  0.00  0.00    +0.000 OA
BRANCH   9  11
ATOM     11  O   UNL     1      48.490   2.192   6.461  0.00  0.00    +0.000 OA
ATOM     12  H   UNL     1      49.178   2.360   7.130  0.00  0.00    +0.000 HD
ENDBRANCH   9  11
ENDBRANCH   5   9
ENDBRANCH   1   8
BRANCH   1  13
ATOM     13  C   UNL     1      45.012   6.081  10.931  0.00  0.00    +0.000 C 
BRANCH  13  14
ATOM     14  C   UNL     1      45.975   5.464  11.957  0.00  0.00    +0.000 C 
BRANCH  14  15
ATOM     15  C   UNL     1      47.165   6.293  12.404  0.00  0.00    +0.000 A 
ATOM     16  C   UNL     1      47.869   7.164  11.564  0.00  0.00    +0.000 A 
ATOM     17  C   UNL     1      48.975   7.873  12.038  0.00  0.00    +0.000 A 
ATOM     18  C   UNL     1      49.398   7.726  13.360  0.00  0.00    +0.000 A 
ATOM     19  C   UNL     1      48.707   6.875  14.229  0.00  0.00    +0.000 A 
ATOM     20  C   UNL     1      47.595   6.168  13.740  0.00  0.00    +0.000 A 
BRANCH  19  21
ATOM     21  C   UNL     1      49.159   6.704  15.657  0.00  0.00    +0.000 C 
BRANCH  21  22
ATOM     22  N   UNL     1      48.264   7.375  16.592  0.00  0.00    +0.000 NA
ATOM     23  H   UNL     1      48.169   8.349  16.308  0.00  0.00    +0.000 HD
ATOM     24  H   UNL     1      48.691   7.383  17.515  0.00  0.00    +0.000 HD
ENDBRANCH  21  22
ENDBRANCH  19  21
ENDBRANCH  14  15
ENDBRANCH  13  14
ENDBRANCH   1  13
TORSDOF 8
ENDMDL
MODEL 5
REMARK VINA RESULT:    -6.060      4.177      7.310
REMARK INTER + INTRA:          -9.562
REMARK INTER:                  -8.608
REMARK INTRA:                  -0.954
REMARK UNBOUND:                -1.021
REMARK  Name = 
REMARK  9 active torsions:
REMARK  status: ('A' for Active; 'I' for Inactive)
REMARK    1  A    between atoms: C_1  and  C_2
REMARK    2  A    between atoms: C_4  and  C_5
REMARK    3  A    between atoms: C_5  and  O_7
REMARK    4  A    between atoms: C_10  and  O_11
REMARK    5  A    between atoms: O_11  and  C_12
REMARK    6  A    between atoms: C_12  and  C_13
REMARK    7  A    between atoms: C_13  and  C_14
REMARK    8  A    between atoms: C_18  and  C_19
REMARK    9  A    between atoms: C_19  and  N_20
REMARK                            x       y       z     vdW  Elec       q    Type
REMARK                         _______ _______ _______ _____ _____    ______ ____
ROOT
ATOM      1  O   UNL     1      48.507   6.005  13.301  0.00  0.00    +0.000 OA
ENDROOT
BRANCH   1   8
ATOM      2  C   UNL     1      46.968   3.711  13.811  0.00  0.00    +0.000 C 
ATOM      3  C   UNL     1      46.416   4.909  13.080  0.00  0.00    +0.000 A 
ATOM      4  C   UNL     1      45.081   4.880  12.630  0.00  0.00    +0.000 A 
ATOM      5  C   UNL     1      44.533   5.984  11.965  0.00  0.00    +0.000 A 
ATOM      6  C   UNL     1      45.303   7.133  11.796  0.00  0.00    +0.000 A 
ATOM      7  C   UNL     1      46.625   7.172  12.250  0.00  0.00    +0.000 A 
ATOM      8  C   UNL     1      47.199   6.066  12.884  0.00  0.00    +0.000 A 
BRANCH   5   9
ATOM      9  C   UNL     1      43.141   5.996  11.452  0.00  0.00    +0.000 C 
ATOM     10  O   UNL     1      42.441   4.998  11.414  0.00  0.00    +0.000 OA
BRANCH   9  11
ATOM     11  O   UNL     1      42.702   7.219  11.090  0.00  0.00    +0.000 OA
ATOM     12  H   UNL     1      42.746   7.407  10.135  0.00  0.00    +0.000 HD
ENDBRANCH   9  11
ENDBRANCH   5   9
ENDBRANCH   1   8
BRANCH   1  13
ATOM     13  C   UNL     1      49.067   7.184  13.893  0.00  0.00    +0.000 C 
BRANCH  13  14
ATOM     14  C   UNL     1      48.767   7.238  15.399  0.00  0.00    +0.000 C 
BRANCH  14  15
ATOM     15  C   UNL     1      49.322   6.128  16.274  0.00  0.00    +0.000 A 
ATOM     16  C   UNL     1      50.646   6.078  16.723  0.00  0.00    +0.000 A 
ATOM     17  C   UNL     1      51.095   5.008  17.502  0.00  0.00    +0.000 A 
ATOM     18  C   UNL     1      50.229   3.971  17.846  0.00  0.00    +0.000 A 
ATOM     19  C   UNL     1      48.894   3.999  17.426  0.00  0.00    +0.000 A 
ATOM     20  C   UNL     1      48.456   5.080  16.643  0.00  0.00    +0.000 A 
BRANCH  19  21
ATOM     21  C   UNL     1      47.952   2.879  17.787  0.00  0.00    +0.000 C 
BRANCH  21  22
ATOM     22  N   UNL     1      46.562   3.240  17.537  0.00  0.00    +0.000 NA
ATOM     23  H   UNL     1      46.531   4.205  17.209  0.00  0.00    +0.000 HD
ATOM     24  H   UNL     1      46.049   3.218  18.415  0.00  0.00    +0.000 HD
ENDBRANCH  21  22
ENDBRANCH  19  21
ENDBRANCH  14  15
ENDBRANCH  13  14
ENDBRANCH   1  13
TORSDOF 8
ENDMDL
MODEL 6
REMARK VINA RESULT:    -5.862      2.913      4.167
REMARK INTER + INTRA:          -9.281
REMARK INTER:                  -8.710
REMARK INTRA:                  -0.572
REMARK UNBOUND:                -1.021
REMARK  Name = 
REMARK  9 active torsions:
REMARK  status: ('A' for Active; 'I' for Inactive)
REMARK    1  A    between atoms: C_1  and  C_2
REMARK    2  A    between atoms: C_4  and  C_5
REMARK    3  A    between atoms: C_5  and  O_7
REMARK    4  A    between atoms: C_10  and  O_11
REMARK    5  A    between atoms: O_11  and  C_12
REMARK    6  A    between atoms: C_12  and  C_13
REMARK    7  A    between atoms: C_13  and  C_14
REMARK    8  A    between atoms: C_18  and  C_19
REMARK    9  A    between atoms: C_19  and  N_20
REMARK                            x       y       z     vdW  Elec       q    Type
REMARK                         _______ _______ _______ _____ _____    ______ ____
ROOT
ATOM      1  O   UNL     1      47.012   6.180  12.767  0.00  0.00    +0.000 OA
ENDROOT
BRANCH   1   8
ATOM      2  C   UNL     1      48.795   7.801  14.211  0.00  0.00    +0.000 C 
ATOM      3  C   UNL     1      48.275   6.492  14.750  0.00  0.00    +0.000 A 
ATOM      4  C   UNL     1      48.699   6.058  16.021  0.00  0.00    +0.000 A 
ATOM      5  C   UNL     1      48.219   4.857  16.558  0.00  0.00    +0.000 A 
ATOM      6  C   UNL     1      47.278   4.117  15.845  0.00  0.00    +0.000 A 
ATOM      7  C   UNL     1      46.844   4.547  14.587  0.00  0.00    +0.000 A 
ATOM      8  C   UNL     1      47.341   5.725  14.022  0.00  0.00    +0.000 A 
BRANCH   5   9
ATOM      9  C   UNL     1      48.650   4.345  17.882  0.00  0.00    +0.000 C 
ATOM     10  O   UNL     1      49.823   4.222  18.194  0.00  0.00    +0.000 OA
BRANCH   9  11
ATOM     11  O   UNL     1      47.631   4.088  18.728  0.00  0.00    +0.000 OA
ATOM     12  H   UNL     1      47.258   3.190  18.662  0.00  0.00    +0.000 HD
ENDBRANCH   9  11
ENDBRANCH   5   9
ENDBRANCH   1   8
BRANCH   1  13
ATOM     13  C   UNL     1      45.638   6.508  12.523  0.00  0.00    +0.000 C 
BRANCH  13  14
ATOM     14  C   UNL     1      45.314   6.437  11.023  0.00  0.00    +0.000 C 
BRANCH  14  15
ATOM     15  C   UNL     1      45.012   5.075  10.424  0.00  0.00    +0.000 A 
ATOM     16  C   UNL     1      44.290   4.075  11.087  0.00  0.00    +0.000 A 
ATOM     17  C   UNL     1      44.077   2.833  10.485  0.00  0.00    +0.000 A 
ATOM     18  C   UNL     1      44.579   2.567   9.211  0.00  0.00    +0.000 A 
ATOM     19  C   UNL     1      45.292   3.550   8.516  0.00  0.00    +0.000 A 
ATOM     20  C   UNL     1      45.500   4.796   9.133  0.00  0.00    +0.000 A 
BRANCH  19  21
ATOM     21  C   UNL     1      45.846   3.271   7.142  0.00  0.00    +0.000 C 
BRANCH  21  22
ATOM     22  N   UNL     1      46.917   4.195   6.793  0.00  0.00    +0.000 NA
ATOM     23  H   UNL     1      47.806   3.786   7.079  0.00  0.00    +0.000 HD
ATOM     24  H   UNL     1      46.807   5.051   7.331  0.00  0.00    +0.000 HD
ENDBRANCH  21  22
ENDBRANCH  19  21
ENDBRANCH  14  15
ENDBRANCH  13  14
ENDBRANCH   1  13
TORSDOF 8
ENDMDL
MODEL 7
REMARK VINA RESULT:    -5.772      3.189      6.534
REMARK INTER + INTRA:          -9.155
REMARK INTER:                  -8.537
REMARK INTRA:                  -0.618
REMARK UNBOUND:                -1.021
REMARK  Name = 
REMARK  9 active torsions:
REMARK  status: ('A' for Active; 'I' for Inactive)
REMARK    1  A    between atoms: C_1  and  C_2
REMARK    2  A    between atoms: C_4  and  C_5
REMARK    3  A    between atoms: C_5  and  O_7
REMARK    4  A    between atoms: C_10  and  O_11
REMARK    5  A    between atoms: O_11  and  C_12
REMARK    6  A    between atoms: C_12  and  C_13
REMARK    7  A    between atoms: C_13  and  C_14
REMARK    8  A    between atoms: C_18  and  C_19
REMARK    9  A    between atoms: C_19  and  N_20
REMARK                            x       y       z     vdW  Elec       q    Type
REMARK                         _______ _______ _______ _____ _____    ______ ____
ROOT
ATOM      1  O   UNL     1      43.959   5.396  11.287  0.00  0.00    +0.000 OA
ENDROOT
BRANCH   1   8
ATOM      2  C   UNL     1      43.363   2.675  11.654  0.00  0.00    +0.000 C 
ATOM      3  C   UNL     1      44.284   3.161  10.563  0.00  0.00    +0.000 A 
ATOM      4  C   UNL     1      44.874   2.221   9.696  0.00  0.00    +0.000 A 
ATOM      5  C   UNL     1      45.718   2.642   8.661  0.00  0.00    +0.000 A 
ATOM      6  C   UNL     1      45.931   4.005   8.463  0.00  0.00    +0.000 A 
ATOM      7  C   UNL     1      45.340   4.944   9.313  0.00  0.00    +0.000 A 
ATOM      8  C   UNL     1      44.523   4.538  10.374  0.00  0.00    +0.000 A 
BRANCH   5   9
ATOM      9  C   UNL     1      46.381   1.691   7.735  0.00  0.00    +0.000 C 
ATOM     10  O   UNL     1      46.543   0.512   8.000  0.00  0.00    +0.000 OA
BRANCH   9  11
ATOM     11  O   UNL     1      46.734   2.236   6.552  0.00  0.00    +0.000 OA
ATOM     12  H   UNL     1      47.304   3.023   6.614  0.00  0.00    +0.000 HD
ENDBRANCH   9  11
ENDBRANCH   5   9
ENDBRANCH   1   8
BRANCH   1  13
ATOM     13  C   UNL     1      44.384   6.765  11.259  0.00  0.00    +0.000 C 
BRANCH  13  14
ATOM     14  C   UNL     1      45.291   7.083  12.457  0.00  0.00    +0.000 C 
BRANCH  14  15
ATOM     15  C   UNL     1      46.458   8.028  12.233  0.00  0.00    +0.000 A 
ATOM     16  C   UNL     1      46.349   9.423  12.262  0.00  0.00    +0.000 A 
ATOM     17  C   UNL     1      47.462  10.231  12.017  0.00  0.00    +0.000 A 
ATOM     18  C   UNL     1      48.704   9.660  11.737  0.00  0.00    +0.000 A 
ATOM     19  C   UNL     1      48.850   8.269  11.715  0.00  0.00    +0.000 A 
ATOM     20  C   UNL     1      47.722   7.468  11.964  0.00  0.00    +0.000 A 
BRANCH  19  21
ATOM     21  C   UNL     1      50.186   7.642  11.407  0.00  0.00    +0.000 C 
BRANCH  21  22
ATOM     22  N   UNL     1      51.095   7.722  12.544  0.00  0.00    +0.000 NA
ATOM     23  H   UNL     1      52.050   7.628  12.204  0.00  0.00    +0.000 HD
ATOM     24  H   UNL     1      50.928   6.929  13.160  0.00  0.00    +0.000 HD
ENDBRANCH  21  22
ENDBRANCH  19  21
ENDBRANCH  14  15
ENDBRANCH  13  14
ENDBRANCH   1  13
TORSDOF 8
ENDMDL
MODEL 8
REMARK VINA RESULT:    -5.656      3.570      6.911
REMARK INTER + INTRA:          -8.992
REMARK INTER:                  -8.252
REMARK INTRA:                  -0.740
REMARK UNBOUND:                -1.021
REMARK  Name = 
REMARK  9 active torsions:
REMARK  status: ('A' for Active; 'I' for Inactive)
REMARK    1  A    between atoms: C_1  and  C_2
REMARK    2  A    between atoms: C_4  and  C_5
REMARK    3  A    between atoms: C_5  and  O_7
REMARK    4  A    between atoms: C_10  and  O_11
REMARK    5  A    between atoms: O_11  and  C_12
REMARK    6  A    between atoms: C_12  and  C_13
REMARK    7  A    between atoms: C_13  and  C_14
REMARK    8  A    between atoms: C_18  and  C_19
REMARK    9  A    between atoms: C_19  and  N_20
REMARK                            x       y       z     vdW  Elec       q    Type
REMARK                         _______ _______ _______ _____ _____    ______ ____
ROOT
ATOM      1  O   UNL     1      48.327   6.313  13.359  0.00  0.00    +0.000 OA
ENDROOT
BRANCH   1   8
ATOM      2  C   UNL     1      47.023   4.142  14.576  0.00  0.00    +0.000 C 
ATOM      3  C   UNL     1      46.557   4.738  13.272  0.00  0.00    +0.000 A 
ATOM      4  C   UNL     1      45.429   4.186  12.632  0.00  0.00    +0.000 A 
ATOM      5  C   UNL     1      44.959   4.728  11.430  0.00  0.00    +0.000 A 
ATOM      6  C   UNL     1      45.586   5.852  10.895  0.00  0.00    +0.000 A 
ATOM      7  C   UNL     1      46.699   6.411  11.529  0.00  0.00    +0.000 A 
ATOM      8  C   UNL     1      47.203   5.860  12.712  0.00  0.00    +0.000 A 
BRANCH   5   9
ATOM      9  C   UNL     1      43.790   4.172  10.706  0.00  0.00    +0.000 C 
ATOM     10  O   UNL     1      43.018   3.374  11.210  0.00  0.00    +0.000 OA
BRANCH   9  11
ATOM     11  O   UNL     1      43.625   4.673   9.464  0.00  0.00    +0.000 OA
ATOM     12  H   UNL     1      43.069   4.135   8.872  0.00  0.00    +0.000 HD
ENDBRANCH   9  11
ENDBRANCH   5   9
ENDBRANCH   1   8
BRANCH   1  13
ATOM     13  C   UNL     1      48.370   7.701  13.715  0.00  0.00    +0.000 C 
BRANCH  13  14
ATOM     14  C   UNL     1      49.254   8.491  12.738  0.00  0.00    +0.000 C 
BRANCH  14  15
ATOM     15  C   UNL     1      48.622   9.648  11.984  0.00  0.00    +0.000 A 
ATOM     16  C   UNL     1      49.339  10.531  11.168  0.00  0.00    +0.000 A 
ATOM     17  C   UNL     1      48.695  11.593  10.529  0.00  0.00    +0.000 A 
ATOM     18  C   UNL     1      47.323  11.792  10.693  0.00  0.00    +0.000 A 
ATOM     19  C   UNL     1      46.576  10.918  11.490  0.00  0.00    +0.000 A 
ATOM     20  C   UNL     1      47.236   9.853  12.127  0.00  0.00    +0.000 A 
BRANCH  19  21
ATOM     21  C   UNL     1      45.095  11.128  11.678  0.00  0.00    +0.000 C 
BRANCH  21  22
ATOM     22  N   UNL     1      44.502  10.084  12.506  0.00  0.00    +0.000 NA
ATOM     23  H   UNL     1      43.540  10.344  12.718  0.00  0.00    +0.000 HD
ATOM     24  H   UNL     1      44.994  10.044  13.395  0.00  0.00    +0.000 HD
ENDBRANCH  21  22
ENDBRANCH  19  21
ENDBRANCH  14  15
ENDBRANCH  13  14
ENDBRANCH   1  13
TORSDOF 8
ENDMDL
MODEL 9
REMARK VINA RESULT:    -5.634      4.252      7.765
REMARK INTER + INTRA:          -8.961
REMARK INTER:                  -8.018
REMARK INTRA:                  -0.943
REMARK UNBOUND:                -1.021
REMARK  Name = 
REMARK  9 active torsions:
REMARK  status: ('A' for Active; 'I' for Inactive)
REMARK    1  A    between atoms: C_1  and  C_2
REMARK    2  A    between atoms: C_4  and  C_5
REMARK    3  A    between atoms: C_5  and  O_7
REMARK    4  A    between atoms: C_10  and  O_11
REMARK    5  A    between atoms: O_11  and  C_12
REMARK    6  A    between atoms: C_12  and  C_13
REMARK    7  A    between atoms: C_13  and  C_14
REMARK    8  A    between atoms: C_18  and  C_19
REMARK    9  A    between atoms: C_19  and  N_20
REMARK                            x       y       z     vdW  Elec       q    Type
REMARK                         _______ _______ _______ _____ _____    ______ ____
ROOT
ATOM      1  O   UNL     1      48.435   7.497  13.168  0.00  0.00    +0.000 OA
ENDROOT
BRANCH   1   8
ATOM      2  C   UNL     1      46.048   8.880  12.637  0.00  0.00    +0.000 C 
ATOM      3  C   UNL     1      46.081   7.396  12.903  0.00  0.00    +0.000 A 
ATOM      4  C   UNL     1      44.873   6.672  12.892  0.00  0.00    +0.000 A 
ATOM      5  C   UNL     1      44.872   5.290  13.117  0.00  0.00    +0.000 A 
ATOM      6  C   UNL     1      46.082   4.625  13.302  0.00  0.00    +0.000 A 
ATOM      7  C   UNL     1      47.287   5.336  13.304  0.00  0.00    +0.000 A 
ATOM      8  C   UNL     1      47.302   6.722  13.117  0.00  0.00    +0.000 A 
BRANCH   5   9
ATOM      9  C   UNL     1      43.625   4.485  13.136  0.00  0.00    +0.000 C 
ATOM     10  O   UNL     1      43.614   3.278  12.957  0.00  0.00    +0.000 OA
BRANCH   9  11
ATOM     11  O   UNL     1      42.518   5.197  13.429  0.00  0.00    +0.000 OA
ATOM     12  H   UNL     1      42.134   5.020  14.307  0.00  0.00    +0.000 HD
ENDBRANCH   9  11
ENDBRANCH   5   9
ENDBRANCH   1   8
BRANCH   1  13
ATOM     13  C   UNL     1      49.402   7.188  14.180  0.00  0.00    +0.000 C 
BRANCH  13  14
ATOM     14  C   UNL     1      48.926   7.668  15.559  0.00  0.00    +0.000 C 
BRANCH  14  15
ATOM     15  C   UNL     1      49.075   6.717  16.734  0.00  0.00    +0.000 A 
ATOM     16  C   UNL     1      49.738   7.044  17.922  0.00  0.00    +0.000 A 
ATOM     17  C   UNL     1      49.863   6.106  18.950  0.00  0.00    +0.000 A 
ATOM     18  C   UNL     1      49.327   4.825  18.809  0.00  0.00    +0.000 A 
ATOM     19  C   UNL     1      48.645   4.472  17.640  0.00  0.00    +0.000 A 
ATOM     20  C   UNL     1      48.527   5.425  16.614  0.00  0.00    +0.000 A 
BRANCH  19  21
ATOM     21  C   UNL     1      48.069   3.089  17.475  0.00  0.00    +0.000 C 
BRANCH  21  22
ATOM     22  N   UNL     1      46.611   3.103  17.512  0.00  0.00    +0.000 NA
ATOM     23  H   UNL     1      46.289   4.035  17.257  0.00  0.00    +0.000 HD
ATOM     24  H   UNL     1      46.301   2.942  18.467  0.00  0.00    +0.000 HD
ENDBRANCH  21  22
ENDBRANCH  19  21
ENDBRANCH  14  15
ENDBRANCH  13  14
ENDBRANCH   1  13
TORSDOF 8
ENDMDL
