MODEL 1
REMARK VINA RESULT:    -7.695      0.000      0.000
REMARK INTER + INTRA:         -11.965
REMARK INTER:                 -11.294
REMARK INTRA:                  -0.671
REMARK UNBOUND:                -0.671
REMARK  Name = 
REMARK  9 active torsions:
REMARK  status: ('A' for Active; 'I' for Inactive)
REMARK    1  A    between atoms: C_1  and  S_2
REMARK    2  A    between atoms: S_2  and  C_5
REMARK    3  A    between atoms: C_8  and  N_9
REMARK    4  A    between atoms: N_9  and  C_10
REMARK    5  A    between atoms: C_10  and  C_11
REMARK    6  A    between atoms: C_11  and  C_12
REMARK    7  A    between atoms: C_16  and  O_17
REMARK    8  A    between atoms: O_17  and  C_18
REMARK    9  A    between atoms: C_24  and  C_25
REMARK                            x       y       z     vdW  Elec       q    Type
REMARK                         _______ _______ _______ _____ _____    ______ ____
ROOT
ATOM      1  N   UNL     1      47.072   7.097  12.589  0.00  0.00    +0.000 N 
ATOM      2  H   UNL     1      47.675   7.916  12.585  0.00  0.00    +0.000 HD
ENDROOT
BRANCH   1   6
ATOM      3  C   UNL     1      47.798   4.642  15.955  0.00  0.00    +0.000 A 
ATOM      4  C   UNL     1      46.898   4.230  14.965  0.00  0.00    +0.000 A 
ATOM      5  C   UNL     1      46.686   5.007  13.829  0.00  0.00    +0.000 A 
ATOM      6  C   UNL     1      47.338   6.229  13.658  0.00  0.00    +0.000 A 
ATOM      7  C   UNL     1      48.226   6.643  14.654  0.00  0.00    +0.000 A 
ATOM      8  C   UNL     1      48.500   5.842  15.780  0.00  0.00    +0.000 A 
BRANCH   8   9
ATOM      9  C   UNL     1      49.688   6.206  16.614  0.00  0.00    +0.000 C 
ATOM     10  N   UNL     1      49.691   7.409  17.278  0.00  0.00    +0.000 N 
ATOM     11  O   UNL     1      50.693   5.517  16.576  0.00  0.00    +0.000 OA
ATOM     12  H   UNL     1      49.004   8.130  17.191  0.00  0.00    +0.000 HD
ATOM     13  H   UNL     1      50.569   7.645  17.740  0.00  0.00    +0.000 HD
ENDBRANCH   8   9
BRANCH   3  15
ATOM     14  C   UNL     1      49.164   2.497  17.136  0.00  0.00    +0.000 C 
ATOM     15  S   UNL     1      47.846   3.642  17.432  0.00  0.00    +0.000 S 
ATOM     16  O   UNL     1      46.615   2.861  17.435  0.00  0.00    +0.000 OA
ATOM     17  O   UNL     1      48.134   4.483  18.576  0.00  0.00    +0.000 OA
ENDBRANCH   3  15
ENDBRANCH   1   6
BRANCH   1  18
ATOM     18  C   UNL     1      46.889   6.505  11.256  0.00  0.00    +0.000 C 
BRANCH  18  19
ATOM     19  C   UNL     1      45.403   6.310  10.940  0.00  0.00    +0.000 C 
BRANCH  19  20
ATOM     20  C   UNL     1      45.110   4.958  10.326  0.00  0.00    +0.000 A 
ATOM     21  C   UNL     1      44.429   3.976  11.054  0.00  0.00    +0.000 A 
ATOM     22  C   UNL     1      44.122   2.748  10.460  0.00  0.00    +0.000 A 
ATOM     23  C   UNL     1      44.497   2.479   9.140  0.00  0.00    +0.000 A 
ATOM     24  C   UNL     1      45.211   3.432   8.416  0.00  0.00    +0.000 A 
ATOM     25  C   UNL     1      45.509   4.666   9.011  0.00  0.00    +0.000 A 
BRANCH  24  26
ATOM     26  O   UNL     1      45.627   3.299   7.112  0.00  0.00    +0.000 OA
BRANCH  26  27
ATOM     27  C   UNL     1      47.039   3.161   6.822  0.00  0.00    +0.000 C 
ATOM     28  C   UNL     1      47.457   2.874   5.367  0.00  0.00    +0.000 C 
ATOM     29  N   UNL     1      48.232   1.701   5.795  0.00  0.00    +0.000 NA
ATOM     30  C   UNL     1      47.661   1.781   7.146  0.00  0.00    +0.000 C 
ATOM     31  H   UNL     1      49.242   1.830   5.760  0.00  0.00    +0.000 HD
ENDBRANCH  26  27
ENDBRANCH  24  26
ENDBRANCH  19  20
ENDBRANCH  18  19
ENDBRANCH   1  18
TORSDOF 8
ENDMDL
MODEL 2
REMARK VINA RESULT:    -7.680      1.515      2.450
REMARK INTER + INTRA:         -11.943
REMARK INTER:                 -11.003
REMARK INTRA:                  -0.940
REMARK UNBOUND:                -0.671
REMARK  Name = 
REMARK  9 active torsions:
REMARK  status: ('A' for Active; 'I' for Inactive)
REMARK    1  A    between atoms: C_1  and  S_2
REMARK    2  A    between atoms: S_2  and  C_5
REMARK    3  A    between atoms: C_8  and  N_9
REMARK    4  A    between atoms: N_9  and  C_10
REMARK    5  A    between atoms: C_10  and  C_11
REMARK    6  A    between atoms: C_11  and  C_12
REMARK    7  A    between atoms: C_16  and  O_17
REMARK    8  A    between atoms: O_17  and  C_18
REMARK    9  A    between atoms: C_24  and  C_25
REMARK                            x       y       z     vdW  Elec       q    Type
REMARK                         _______ _______ _______ _____ _____    ______ ____
ROOT
ATOM      1  N   UNL     1      46.230   5.808  12.373  0.00  0.00    +0.000 N 
ATOM      2  H   UNL     1      46.450   4.998  11.799  0.00  0.00    +0.000 HD
ENDROOT
BRANCH   1   6
ATOM      3  C   UNL     1      48.598   5.772  15.877  0.00  0.00    +0.000 A 
ATOM      4  C   UNL     1      48.551   6.917  15.071  0.00  0.00    +0.000 A 
ATOM      5  C   UNL     1      47.738   6.958  13.941  0.00  0.00    +0.000 A 
ATOM      6  C   UNL     1      46.974   5.854  13.561  0.00  0.00    +0.000 A 
ATOM      7  C   UNL     1      47.033   4.709  14.360  0.00  0.00    +0.000 A 
ATOM      8  C   UNL     1      47.801   4.670  15.540  0.00  0.00    +0.000 A 
BRANCH   8   9
ATOM      9  C   UNL     1      47.551   3.541  16.491  0.00  0.00    +0.000 C 
ATOM     10  N   UNL     1      48.361   2.433  16.434  0.00  0.00    +0.000 N 
ATOM     11  O   UNL     1      46.554   3.544  17.192  0.00  0.00    +0.000 OA
ATOM     12  H   UNL     1      49.064   2.254  15.746  0.00  0.00    +0.000 HD
ATOM     13  H   UNL     1      48.074   1.657  17.031  0.00  0.00    +0.000 HD
ENDBRANCH   8   9
BRANCH   3  15
ATOM     14  C   UNL     1      50.871   7.145  16.779  0.00  0.00    +0.000 C 
ATOM     15  S   UNL     1      49.805   5.792  17.191  0.00  0.00    +0.000 S 
ATOM     16  O   UNL     1      50.600   4.580  17.032  0.00  0.00    +0.000 OA
ATOM     17  O   UNL     1      49.139   6.020  18.457  0.00  0.00    +0.000 OA
ENDBRANCH   3  15
ENDBRANCH   1   6
BRANCH   1  18
ATOM     18  C   UNL     1      44.790   6.085  12.456  0.00  0.00    +0.000 C 
BRANCH  18  19
ATOM     19  C   UNL     1      44.137   6.021  11.072  0.00  0.00    +0.000 C 
BRANCH  19  20
ATOM     20  C   UNL     1      44.442   4.731  10.342  0.00  0.00    +0.000 A 
ATOM     21  C   UNL     1      43.968   3.507  10.827  0.00  0.00    +0.000 A 
ATOM     22  C   UNL     1      44.216   2.327  10.120  0.00  0.00    +0.000 A 
ATOM     23  C   UNL     1      44.945   2.350   8.926  0.00  0.00    +0.000 A 
ATOM     24  C   UNL     1      45.458   3.556   8.452  0.00  0.00    +0.000 A 
ATOM     25  C   UNL     1      45.200   4.738   9.159  0.00  0.00    +0.000 A 
BRANCH  24  26
ATOM     26  O   UNL     1      46.177   3.716   7.290  0.00  0.00    +0.000 OA
BRANCH  26  27
ATOM     27  C   UNL     1      46.625   2.548   6.561  0.00  0.00    +0.000 C 
ATOM     28  C   UNL     1      48.003   1.955   6.916  0.00  0.00    +0.000 C 
ATOM     29  N   UNL     1      48.424   2.027   5.510  0.00  0.00    +0.000 NA
ATOM     30  C   UNL     1      47.238   2.820   5.165  0.00  0.00    +0.000 C 
ATOM     31  H   UNL     1      48.473   1.122   5.041  0.00  0.00    +0.000 HD
ENDBRANCH  26  27
ENDBRANCH  24  26
ENDBRANCH  19  20
ENDBRANCH  18  19
ENDBRANCH   1  18
TORSDOF 8
ENDMDL
MODEL 3
REMARK VINA RESULT:    -6.687      1.859      2.877
REMARK INTER + INTRA:         -10.486
REMARK INTER:                  -9.507
REMARK INTRA:                  -0.979
REMARK UNBOUND:                -0.671
REMARK  Name = 
REMARK  9 active torsions:
REMARK  status: ('A' for Active; 'I' for Inactive)
REMARK    1  A    between atoms: C_1  and  S_2
REMARK    2  A    between atoms: S_2  and  C_5
REMARK    3  A    between atoms: C_8  and  N_9
REMARK    4  A    between atoms: N_9  and  C_10
REMARK    5  A    between atoms: C_10  and  C_11
REMARK    6  A    between atoms: C_11  and  C_12
REMARK    7  A    between atoms: C_16  and  O_17
REMARK    8  A    between atoms: O_17  and  C_18
REMARK    9  A    between atoms: C_24  and  C_25
REMARK                            x       y       z     vdW  Elec       q    Type
REMARK                         _______ _______ _______ _____ _____    ______ ____
ROOT
ATOM      1  N   UNL     1      48.292   8.171  13.781  0.00  0.00    +0.000 N 
ATOM      2  H   UNL     1      49.012   8.438  13.114  0.00  0.00    +0.000 HD
ENDROOT
BRANCH   1   6
ATOM      3  C   UNL     1      49.726   5.510  16.739  0.00  0.00    +0.000 A 
ATOM      4  C   UNL     1      50.553   6.529  16.249  0.00  0.00    +0.000 A 
ATOM      5  C   UNL     1      50.077   7.440  15.310  0.00  0.00    +0.000 A 
ATOM      6  C   UNL     1      48.778   7.348  14.808  0.00  0.00    +0.000 A 
ATOM      7  C   UNL     1      47.960   6.322  15.289  0.00  0.00    +0.000 A 
ATOM      8  C   UNL     1      48.403   5.429  16.284  0.00  0.00    +0.000 A 
BRANCH   8   9
ATOM      9  C   UNL     1      47.371   4.586  16.965  0.00  0.00    +0.000 C 
ATOM     10  N   UNL     1      46.931   4.953  18.213  0.00  0.00    +0.000 N 
ATOM     11  O   UNL     1      47.046   3.514  16.484  0.00  0.00    +0.000 OA
ATOM     12  H   UNL     1      47.302   5.695  18.773  0.00  0.00    +0.000 HD
ATOM     13  H   UNL     1      46.311   4.283  18.668  0.00  0.00    +0.000 HD
ENDBRANCH   8   9
BRANCH   3  15
ATOM     14  C   UNL     1      52.213   4.800  17.822  0.00  0.00    +0.000 C 
ATOM     15  S   UNL     1      50.511   4.312  17.804  0.00  0.00    +0.000 S 
ATOM     16  O   UNL     1      50.456   3.039  17.095  0.00  0.00    +0.000 OA
ATOM     17  O   UNL     1      49.932   4.390  19.129  0.00  0.00    +0.000 OA
ENDBRANCH   3  15
ENDBRANCH   1   6
BRANCH   1  18
ATOM     18  C   UNL     1      47.024   7.794  13.144  0.00  0.00    +0.000 C 
BRANCH  18  19
ATOM     19  C   UNL     1      47.267   6.916  11.911  0.00  0.00    +0.000 C 
BRANCH  19  20
ATOM     20  C   UNL     1      46.176   5.889  11.702  0.00  0.00    +0.000 A 
ATOM     21  C   UNL     1      45.601   5.227  12.793  0.00  0.00    +0.000 A 
ATOM     22  C   UNL     1      44.561   4.313  12.592  0.00  0.00    +0.000 A 
ATOM     23  C   UNL     1      44.088   4.041  11.304  0.00  0.00    +0.000 A 
ATOM     24  C   UNL     1      44.678   4.663  10.205  0.00  0.00    +0.000 A 
ATOM     25  C   UNL     1      45.715   5.585  10.411  0.00  0.00    +0.000 A 
BRANCH  24  26
ATOM     26  O   UNL     1      44.301   4.493   8.893  0.00  0.00    +0.000 OA
BRANCH  26  27
ATOM     27  C   UNL     1      44.633   3.261   8.208  0.00  0.00    +0.000 C 
ATOM     28  C   UNL     1      45.412   2.184   8.988  0.00  0.00    +0.000 C 
ATOM     29  N   UNL     1      46.436   2.127   7.937  0.00  0.00    +0.000 NA
ATOM     30  C   UNL     1      45.876   3.318   7.286  0.00  0.00    +0.000 C 
ATOM     31  H   UNL     1      46.403   1.284   7.365  0.00  0.00    +0.000 HD
ENDBRANCH  26  27
ENDBRANCH  24  26
ENDBRANCH  19  20
ENDBRANCH  18  19
ENDBRANCH   1  18
TORSDOF 8
ENDMDL
MODEL 4
REMARK VINA RESULT:    -6.672      3.824      7.697
REMARK INTER + INTRA:         -10.463
REMARK INTER:                  -9.211
REMARK INTRA:                  -1.252
REMARK UNBOUND:                -0.671
REMARK  Name = 
REMARK  9 active torsions:
REMARK  status: ('A' for Active; 'I' for Inactive)
REMARK    1  A    between atoms: C_1  and  S_2
REMARK    2  A    between atoms: S_2  and  C_5
REMARK    3  A    between atoms: C_8  and  N_9
REMARK    4  A    between atoms: N_9  and  C_10
REMARK    5  A    between atoms: C_10  and  C_11
REMARK    6  A    between atoms: C_11  and  C_12
REMARK    7  A    between atoms: C_16  and  O_17
REMARK    8  A    between atoms: O_17  and  C_18
REMARK    9  A    between atoms: C_24  and  C_25
REMARK                            x       y       z     vdW  Elec       q    Type
REMARK                         _______ _______ _______ _____ _____    ______ ____
ROOT
ATOM      1  N   UNL     1      48.479   8.553  13.100  0.00  0.00    +0.000 N 
ATOM      2  H   UNL     1      48.490   9.239  12.349  0.00  0.00    +0.000 HD
ENDROOT
BRANCH   1   6
ATOM      3  C   UNL     1      45.841   5.308  12.470  0.00  0.00    +0.000 A 
ATOM      4  C   UNL     1      45.925   6.339  11.526  0.00  0.00    +0.000 A 
ATOM      5  C   UNL     1      46.824   7.388  11.699  0.00  0.00    +0.000 A 
ATOM      6  C   UNL     1      47.642   7.460  12.828  0.00  0.00    +0.000 A 
ATOM      7  C   UNL     1      47.546   6.437  13.774  0.00  0.00    +0.000 A 
ATOM      8  C   UNL     1      46.688   5.336  13.586  0.00  0.00    +0.000 A 
BRANCH   8   9
ATOM      9  C   UNL     1      46.887   4.145  14.472  0.00  0.00    +0.000 C 
ATOM     10  N   UNL     1      46.712   4.288  15.827  0.00  0.00    +0.000 N 
ATOM     11  O   UNL     1      47.345   3.114  14.012  0.00  0.00    +0.000 OA
ATOM     12  H   UNL     1      46.549   5.148  16.311  0.00  0.00    +0.000 HD
ATOM     13  H   UNL     1      46.967   3.473  16.384  0.00  0.00    +0.000 HD
ENDBRANCH   8   9
BRANCH   3  15
ATOM     14  C   UNL     1      43.394   4.957  11.146  0.00  0.00    +0.000 C 
ATOM     15  S   UNL     1      44.532   4.121  12.215  0.00  0.00    +0.000 S 
ATOM     16  O   UNL     1      43.858   3.976  13.500  0.00  0.00    +0.000 OA
ATOM     17  O   UNL     1      45.071   2.937  11.578  0.00  0.00    +0.000 OA
ENDBRANCH   3  15
ENDBRANCH   1   6
BRANCH   1  18
ATOM     18  C   UNL     1      48.402   9.157  14.437  0.00  0.00    +0.000 C 
BRANCH  18  19
ATOM     19  C   UNL     1      49.689   8.906  15.228  0.00  0.00    +0.000 C 
BRANCH  19  20
ATOM     20  C   UNL     1      49.533   7.813  16.264  0.00  0.00    +0.000 A 
ATOM     21  C   UNL     1      48.552   7.907  17.258  0.00  0.00    +0.000 A 
ATOM     22  C   UNL     1      48.386   6.871  18.182  0.00  0.00    +0.000 A 
ATOM     23  C   UNL     1      49.199   5.733  18.133  0.00  0.00    +0.000 A 
ATOM     24  C   UNL     1      50.207   5.644  17.174  0.00  0.00    +0.000 A 
ATOM     25  C   UNL     1      50.365   6.681  16.244  0.00  0.00    +0.000 A 
BRANCH  24  26
ATOM     26  O   UNL     1      51.063   4.580  17.012  0.00  0.00    +0.000 OA
BRANCH  26  27
ATOM     27  C   UNL     1      50.862   3.376  17.792  0.00  0.00    +0.000 C 
ATOM     28  C   UNL     1      51.992   2.329  17.814  0.00  0.00    +0.000 C 
ATOM     29  N   UNL     1      51.058   1.275  17.397  0.00  0.00    +0.000 NA
ATOM     30  C   UNL     1      50.015   2.270  17.116  0.00  0.00    +0.000 C 
ATOM     31  H   UNL     1      50.816   0.613  18.134  0.00  0.00    +0.000 HD
ENDBRANCH  26  27
ENDBRANCH  24  26
ENDBRANCH  19  20
ENDBRANCH  18  19
ENDBRANCH   1  18
TORSDOF 8
ENDMDL
MODEL 5
REMARK VINA RESULT:    -6.669      3.631      7.974
REMARK INTER + INTRA:         -10.460
REMARK INTER:                  -9.151
REMARK INTRA:                  -1.309
REMARK UNBOUND:                -0.671
REMARK  Name = 
REMARK  9 active torsions:
REMARK  status: ('A' for Active; 'I' for Inactive)
REMARK    1  A    between atoms: C_1  and  S_2
REMARK    2  A    between atoms: S_2  and  C_5
REMARK    3  A    between atoms: C_8  and  N_9
REMARK    4  A    between atoms: N_9  and  C_10
REMARK    5  A    between atoms: C_10  and  C_11
REMARK    6  A    between atoms: C_11  and  C_12
REMARK    7  A    between atoms: C_16  and  O_17
REMARK    8  A    between atoms: O_17  and  C_18
REMARK    9  A    between atoms: C_24  and  C_25
REMARK                            x       y       z     vdW  Elec       q    Type
REMARK                         _______ _______ _______ _____ _____    ______ ____
ROOT
ATOM      1  N   UNL     1      48.599   8.097  11.936  0.00  0.00    +0.000 N 
ATOM      2  H   UNL     1      48.253   9.007  12.230  0.00  0.00    +0.000 HD
ENDROOT
BRANCH   1   6
ATOM      3  C   UNL     1      45.594   5.154  12.375  0.00  0.00    +0.000 A 
ATOM      4  C   UNL     1      45.601   5.991  11.252  0.00  0.00    +0.000 A 
ATOM      5  C   UNL     1      46.612   6.932  11.072  0.00  0.00    +0.000 A 
ATOM      6  C   UNL     1      47.627   7.090  12.017  0.00  0.00    +0.000 A 
ATOM      7  C   UNL     1      47.610   6.263  13.143  0.00  0.00    +0.000 A 
ATOM      8  C   UNL     1      46.631   5.264  13.311  0.00  0.00    +0.000 A 
BRANCH   8   9
ATOM      9  C   UNL     1      46.877   4.226  14.361  0.00  0.00    +0.000 C 
ATOM     10  N   UNL     1      46.750   4.576  15.684  0.00  0.00    +0.000 N 
ATOM     11  O   UNL     1      47.330   3.139  14.049  0.00  0.00    +0.000 OA
ATOM     12  H   UNL     1      46.594   5.499  16.036  0.00  0.00    +0.000 HD
ATOM     13  H   UNL     1      47.034   3.857  16.350  0.00  0.00    +0.000 HD
ENDBRANCH   8   9
BRANCH   3  15
ATOM     14  C   UNL     1      43.165   4.484  11.145  0.00  0.00    +0.000 C 
ATOM     15  S   UNL     1      44.155   4.118  12.568  0.00  0.00    +0.000 S 
ATOM     16  O   UNL     1      43.428   4.640  13.719  0.00  0.00    +0.000 OA
ATOM     17  O   UNL     1      44.558   2.726  12.578  0.00  0.00    +0.000 OA
ENDBRANCH   3  15
ENDBRANCH   1   6
BRANCH   1  18
ATOM     18  C   UNL     1      49.942   7.795  12.450  0.00  0.00    +0.000 C 
BRANCH  18  19
ATOM     19  C   UNL     1      50.228   8.578  13.735  0.00  0.00    +0.000 C 
BRANCH  19  20
ATOM     20  C   UNL     1      50.697   7.690  14.867  0.00  0.00    +0.000 A 
ATOM     21  C   UNL     1      52.057   7.592  15.180  0.00  0.00    +0.000 A 
ATOM     22  C   UNL     1      52.475   6.805  16.258  0.00  0.00    +0.000 A 
ATOM     23  C   UNL     1      51.546   6.101  17.031  0.00  0.00    +0.000 A 
ATOM     24  C   UNL     1      50.192   6.157  16.706  0.00  0.00    +0.000 A 
ATOM     25  C   UNL     1      49.776   6.954  15.630  0.00  0.00    +0.000 A 
BRANCH  24  26
ATOM     26  O   UNL     1      49.179   5.525  17.390  0.00  0.00    +0.000 OA
BRANCH  26  27
ATOM     27  C   UNL     1      49.502   4.475  18.333  0.00  0.00    +0.000 C 
ATOM     28  C   UNL     1      48.796   3.114  18.172  0.00  0.00    +0.000 C 
ATOM     29  N   UNL     1      48.345   3.154  19.570  0.00  0.00    +0.000 NA
ATOM     30  C   UNL     1      48.777   4.551  19.699  0.00  0.00    +0.000 C 
ATOM     31  H   UNL     1      48.835   2.506  20.187  0.00  0.00    +0.000 HD
ENDBRANCH  26  27
ENDBRANCH  24  26
ENDBRANCH  19  20
ENDBRANCH  18  19
ENDBRANCH   1  18
TORSDOF 8
ENDMDL
MODEL 6
REMARK VINA RESULT:    -6.663      4.449      5.503
REMARK INTER + INTRA:         -10.451
REMARK INTER:                  -9.634
REMARK INTRA:                  -0.817
REMARK UNBOUND:                -0.671
REMARK  Name = 
REMARK  9 active torsions:
REMARK  status: ('A' for Active; 'I' for Inactive)
REMARK    1  A    between atoms: C_1  and  S_2
REMARK    2  A    between atoms: S_2  and  C_5
REMARK    3  A    between atoms: C_8  and  N_9
REMARK    4  A    between atoms: N_9  and  C_10
REMARK    5  A    between atoms: C_10  and  C_11
REMARK    6  A    between atoms: C_11  and  C_12
REMARK    7  A    between atoms: C_16  and  O_17
REMARK    8  A    between atoms: O_17  and  C_18
REMARK    9  A    between atoms: C_24  and  C_25
REMARK                            x       y       z     vdW  Elec       q    Type
REMARK                         _______ _______ _______ _____ _____    ______ ____
ROOT
ATOM      1  N   UNL     1      47.312   6.326  12.220  0.00  0.00    +0.000 N 
ATOM      2  H   UNL     1      47.773   5.749  12.919  0.00  0.00    +0.000 HD
ENDROOT
BRANCH   1   6
ATOM      3  C   UNL     1      49.339   9.994  11.658  0.00  0.00    +0.000 A 
ATOM      4  C   UNL     1      50.013   8.782  11.466  0.00  0.00    +0.000 A 
ATOM      5  C   UNL     1      49.344   7.568  11.602  0.00  0.00    +0.000 A 
ATOM      6  C   UNL     1      47.996   7.522  11.962  0.00  0.00    +0.000 A 
ATOM      7  C   UNL     1      47.331   8.734  12.165  0.00  0.00    +0.000 A 
ATOM      8  C   UNL     1      47.974   9.972  11.972  0.00  0.00    +0.000 A 
BRANCH   8   9
ATOM      9  C   UNL     1      47.112  11.193  11.892  0.00  0.00    +0.000 C 
ATOM     10  N   UNL     1      47.279  12.187  12.826  0.00  0.00    +0.000 N 
ATOM     11  O   UNL     1      46.180  11.230  11.108  0.00  0.00    +0.000 OA
ATOM     12  H   UNL     1      47.870  12.143  13.631  0.00  0.00    +0.000 HD
ATOM     13  H   UNL     1      46.593  12.941  12.783  0.00  0.00    +0.000 HD
ENDBRANCH   8   9
BRANCH   3  15
ATOM     14  C   UNL     1      51.968  10.866  11.216  0.00  0.00    +0.000 C 
ATOM     15  S   UNL     1      50.351  11.464  11.623  0.00  0.00    +0.000 S 
ATOM     16  O   UNL     1      50.423  11.942  12.998  0.00  0.00    +0.000 OA
ATOM     17  O   UNL     1      49.858  12.367  10.602  0.00  0.00    +0.000 OA
ENDBRANCH   3  15
ENDBRANCH   1   6
BRANCH   1  18
ATOM     18  C   UNL     1      45.855   6.395  12.396  0.00  0.00    +0.000 C 
BRANCH  18  19
ATOM     19  C   UNL     1      45.141   6.478  11.044  0.00  0.00    +0.000 C 
BRANCH  19  20
ATOM     20  C   UNL     1      45.094   5.146  10.326  0.00  0.00    +0.000 A 
ATOM     21  C   UNL     1      44.483   4.036  10.922  0.00  0.00    +0.000 A 
ATOM     22  C   UNL     1      44.404   2.822  10.232  0.00  0.00    +0.000 A 
ATOM     23  C   UNL     1      44.939   2.697   8.945  0.00  0.00    +0.000 A 
ATOM     24  C   UNL     1      45.585   3.781   8.356  0.00  0.00    +0.000 A 
ATOM     25  C   UNL     1      45.655   4.999   9.047  0.00  0.00    +0.000 A 
BRANCH  24  26
ATOM     26  O   UNL     1      46.140   3.793   7.097  0.00  0.00    +0.000 OA
BRANCH  26  27
ATOM     27  C   UNL     1      46.607   2.554   6.511  0.00  0.00    +0.000 C 
ATOM     28  C   UNL     1      47.977   2.010   6.960  0.00  0.00    +0.000 C 
ATOM     29  N   UNL     1      48.430   1.928   5.565  0.00  0.00    +0.000 NA
ATOM     30  C   UNL     1      47.251   2.674   5.108  0.00  0.00    +0.000 C 
ATOM     31  H   UNL     1      48.491   0.978   5.199  0.00  0.00    +0.000 HD
ENDBRANCH  26  27
ENDBRANCH  24  26
ENDBRANCH  19  20
ENDBRANCH  18  19
ENDBRANCH   1  18
TORSDOF 8
ENDMDL
MODEL 7
REMARK VINA RESULT:    -6.579      2.976      4.442
REMARK INTER + INTRA:         -10.327
REMARK INTER:                  -8.906
REMARK INTRA:                  -1.422
REMARK UNBOUND:                -0.671
REMARK  Name = 
REMARK  9 active torsions:
REMARK  status: ('A' for Active; 'I' for Inactive)
REMARK    1  A    between atoms: C_1  and  S_2
REMARK    2  A    between atoms: S_2  and  C_5
REMARK    3  A    between atoms: C_8  and  N_9
REMARK    4  A    between atoms: N_9  and  C_10
REMARK    5  A    between atoms: C_10  and  C_11
REMARK    6  A    between atoms: C_11  and  C_12
REMARK    7  A    between atoms: C_16  and  O_17
REMARK    8  A    between atoms: O_17  and  C_18
REMARK    9  A    between atoms: C_24  and  C_25
REMARK                            x       y       z     vdW  Elec       q    Type
REMARK                         _______ _______ _______ _____ _____    ______ ____
ROOT
ATOM      1  N   UNL     1      49.570   8.328  14.164  0.00  0.00    +0.000 N 
ATOM      2  H   UNL     1      49.901   9.246  14.449  0.00  0.00    +0.000 HD
ENDROOT
BRANCH   1   6
ATOM      3  C   UNL     1      49.969   5.249  17.036  0.00  0.00    +0.000 A 
ATOM      4  C   UNL     1      51.027   6.137  16.804  0.00  0.00    +0.000 A 
ATOM      5  C   UNL     1      50.891   7.183  15.895  0.00  0.00    +0.000 A 
ATOM      6  C   UNL     1      49.713   7.360  15.169  0.00  0.00    +0.000 A 
ATOM      7  C   UNL     1      48.664   6.465  15.393  0.00  0.00    +0.000 A 
ATOM      8  C   UNL     1      48.760   5.439  16.353  0.00  0.00    +0.000 A 
BRANCH   8   9
ATOM      9  C   UNL     1      47.495   4.747  16.754  0.00  0.00    +0.000 C 
ATOM     10  N   UNL     1      46.952   5.017  17.987  0.00  0.00    +0.000 N 
ATOM     11  O   UNL     1      47.046   3.850  16.063  0.00  0.00    +0.000 OA
ATOM     12  H   UNL     1      47.371   5.575  18.704  0.00  0.00    +0.000 HD
ATOM     13  H   UNL     1      46.154   4.437  18.244  0.00  0.00    +0.000 HD
ENDBRANCH   8   9
BRANCH   3  15
ATOM     14  C   UNL     1      52.033   4.085  18.535  0.00  0.00    +0.000 C 
ATOM     15  S   UNL     1      50.334   3.857  18.092  0.00  0.00    +0.000 S 
ATOM     16  O   UNL     1      50.286   2.676  17.239  0.00  0.00    +0.000 OA
ATOM     17  O   UNL     1      49.480   3.901  19.262  0.00  0.00    +0.000 OA
ENDBRANCH   3  15
ENDBRANCH   1   6
BRANCH   1  18
ATOM     18  C   UNL     1      49.977   7.963  12.800  0.00  0.00    +0.000 C 
BRANCH  18  19
ATOM     19  C   UNL     1      48.950   8.447  11.772  0.00  0.00    +0.000 C 
BRANCH  19  20
ATOM     20  C   UNL     1      47.549   7.958  12.072  0.00  0.00    +0.000 A 
ATOM     21  C   UNL     1      46.564   8.847  12.519  0.00  0.00    +0.000 A 
ATOM     22  C   UNL     1      45.261   8.393  12.748  0.00  0.00    +0.000 A 
ATOM     23  C   UNL     1      44.926   7.051  12.544  0.00  0.00    +0.000 A 
ATOM     24  C   UNL     1      45.905   6.147  12.137  0.00  0.00    +0.000 A 
ATOM     25  C   UNL     1      47.209   6.607  11.900  0.00  0.00    +0.000 A 
BRANCH  24  26
ATOM     26  O   UNL     1      45.705   4.809  11.889  0.00  0.00    +0.000 OA
BRANCH  26  27
ATOM     27  C   UNL     1      44.437   4.366  11.345  0.00  0.00    +0.000 C 
ATOM     28  C   UNL     1      43.494   3.567  12.265  0.00  0.00    +0.000 C 
ATOM     29  N   UNL     1      43.404   2.485  11.274  0.00  0.00    +0.000 NA
ATOM     30  C   UNL     1      44.488   3.081  10.483  0.00  0.00    +0.000 C 
ATOM     31  H   UNL     1      42.509   2.436  10.788  0.00  0.00    +0.000 HD
ENDBRANCH  26  27
ENDBRANCH  24  26
ENDBRANCH  19  20
ENDBRANCH  18  19
ENDBRANCH   1  18
TORSDOF 8
ENDMDL
MODEL 8
REMARK VINA RESULT:    -6.563      3.060      4.586
REMARK INTER + INTRA:         -10.304
REMARK INTER:                  -8.985
REMARK INTRA:                  -1.319
REMARK UNBOUND:                -0.671
REMARK  Name = 
REMARK  9 active torsions:
REMARK  status: ('A' for Active; 'I' for Inactive)
REMARK    1  A    between atoms: C_1  and  S_2
REMARK    2  A    between atoms: S_2  and  C_5
REMARK    3  A    between atoms: C_8  and  N_9
REMARK    4  A    between atoms: N_9  and  C_10
REMARK    5  A    between atoms: C_10  and  C_11
REMARK    6  A    between atoms: C_11  and  C_12
REMARK    7  A    between atoms: C_16  and  O_17
REMARK    8  A    between atoms: O_17  and  C_18
REMARK    9  A    between atoms: C_24  and  C_25
REMARK                            x       y       z     vdW  Elec       q    Type
REMARK                         _______ _______ _______ _____ _____    ______ ____
ROOT
ATOM      1  N   UNL     1      49.740   8.375  13.493  0.00  0.00    +0.000 N 
ATOM      2  H   UNL     1      50.701   8.138  13.257  0.00  0.00    +0.000 HD
ENDROOT
BRANCH   1   6
ATOM      3  C   UNL     1      48.150   5.537  16.194  0.00  0.00    +0.000 A 
ATOM      4  C   UNL     1      48.827   6.664  16.676  0.00  0.00    +0.000 A 
ATOM      5  C   UNL     1      49.314   7.629  15.798  0.00  0.00    +0.000 A 
ATOM      6  C   UNL     1      49.170   7.489  14.417  0.00  0.00    +0.000 A 
ATOM      7  C   UNL     1      48.505   6.357  13.940  0.00  0.00    +0.000 A 
ATOM      8  C   UNL     1      47.951   5.401  14.813  0.00  0.00    +0.000 A 
BRANCH   8   9
ATOM      9  C   UNL     1      46.988   4.412  14.235  0.00  0.00    +0.000 C 
ATOM     10  N   UNL     1      45.658   4.745  14.160  0.00  0.00    +0.000 N 
ATOM     11  O   UNL     1      47.358   3.279  13.981  0.00  0.00    +0.000 OA
ATOM     12  H   UNL     1      45.235   5.566  14.545  0.00  0.00    +0.000 HD
ATOM     13  H   UNL     1      45.039   3.992  13.858  0.00  0.00    +0.000 HD
ENDBRANCH   8   9
BRANCH   3  15
ATOM     14  C   UNL     1      47.519   5.217  18.907  0.00  0.00    +0.000 C 
ATOM     15  S   UNL     1      47.732   4.298  17.409  0.00  0.00    +0.000 S 
ATOM     16  O   UNL     1      48.930   3.486  17.591  0.00  0.00    +0.000 OA
ATOM     17  O   UNL     1      46.502   3.638  17.023  0.00  0.00    +0.000 OA
ENDBRANCH   3  15
ENDBRANCH   1   6
BRANCH   1  18
ATOM     18  C   UNL     1      48.935   8.758  12.325  0.00  0.00    +0.000 C 
BRANCH  18  19
ATOM     19  C   UNL     1      47.718   9.588  12.745  0.00  0.00    +0.000 C 
BRANCH  19  20
ATOM     20  C   UNL     1      46.419   9.035  12.198  0.00  0.00    +0.000 A 
ATOM     21  C   UNL     1      45.359   9.891  11.877  0.00  0.00    +0.000 A 
ATOM     22  C   UNL     1      44.180   9.374  11.329  0.00  0.00    +0.000 A 
ATOM     23  C   UNL     1      44.039   8.001  11.104  0.00  0.00    +0.000 A 
ATOM     24  C   UNL     1      45.071   7.133  11.457  0.00  0.00    +0.000 A 
ATOM     25  C   UNL     1      46.254   7.655  11.997  0.00  0.00    +0.000 A 
BRANCH  24  26
ATOM     26  O   UNL     1      45.064   5.769  11.277  0.00  0.00    +0.000 OA
BRANCH  26  27
ATOM     27  C   UNL     1      43.837   5.107  10.884  0.00  0.00    +0.000 C 
ATOM     28  C   UNL     1      42.887   4.621  11.995  0.00  0.00    +0.000 C 
ATOM     29  N   UNL     1      42.878   3.265  11.429  0.00  0.00    +0.000 NA
ATOM     30  C   UNL     1      43.971   3.610  10.511  0.00  0.00    +0.000 C 
ATOM     31  H   UNL     1      42.007   3.010  10.965  0.00  0.00    +0.000 HD
ENDBRANCH  26  27
ENDBRANCH  24  26
ENDBRANCH  19  20
ENDBRANCH  18  19
ENDBRANCH   1  18
TORSDOF 8
ENDMDL
MODEL 9
REMARK VINA RESULT:    -6.324      3.836      8.286
REMARK INTER + INTRA:          -9.953
REMARK INTER:                  -8.586
REMARK INTRA:                  -1.366
REMARK UNBOUND:                -0.671
REMARK  Name = 
REMARK  9 active torsions:
REMARK  status: ('A' for Active; 'I' for Inactive)
REMARK    1  A    between atoms: C_1  and  S_2
REMARK    2  A    between atoms: S_2  and  C_5
REMARK    3  A    between atoms: C_8  and  N_9
REMARK    4  A    between atoms: N_9  and  C_10
REMARK    5  A    between atoms: C_10  and  C_11
REMARK    6  A    between atoms: C_11  and  C_12
REMARK    7  A    between atoms: C_16  and  O_17
REMARK    8  A    between atoms: O_17  and  C_18
REMARK    9  A    between atoms: C_24  and  C_25
REMARK                            x       y       z     vdW  Elec       q    Type
REMARK                         _______ _______ _______ _____ _____    ______ ____
ROOT
ATOM      1  N   UNL     1      48.822   8.411  13.086  0.00  0.00    +0.000 N 
ATOM      2  H   UNL     1      48.387   9.231  13.500  0.00  0.00    +0.000 HD
ENDROOT
BRANCH   1   6
ATOM      3  C   UNL     1      45.950   5.369  12.471  0.00  0.00    +0.000 A 
ATOM      4  C   UNL     1      46.113   6.385  11.521  0.00  0.00    +0.000 A 
ATOM      5  C   UNL     1      47.088   7.365  11.689  0.00  0.00    +0.000 A 
ATOM      6  C   UNL     1      47.907   7.383  12.819  0.00  0.00    +0.000 A 
ATOM      7  C   UNL     1      47.732   6.375  13.771  0.00  0.00    +0.000 A 
ATOM      8  C   UNL     1      46.795   5.340  13.588  0.00  0.00    +0.000 A 
BRANCH   8   9
ATOM      9  C   UNL     1      46.903   4.144  14.481  0.00  0.00    +0.000 C 
ATOM     10  N   UNL     1      46.612   4.283  15.816  0.00  0.00    +0.000 N 
ATOM     11  O   UNL     1      47.389   3.110  14.058  0.00  0.00    +0.000 OA
ATOM     12  H   UNL     1      46.416   5.142  16.289  0.00  0.00    +0.000 HD
ATOM     13  H   UNL     1      46.807   3.462  16.389  0.00  0.00    +0.000 HD
ENDBRANCH   8   9
BRANCH   3  15
ATOM     14  C   UNL     1      43.477   5.201  11.158  0.00  0.00    +0.000 C 
ATOM     15  S   UNL     1      44.557   4.282  12.220  0.00  0.00    +0.000 S 
ATOM     16  O   UNL     1      43.880   4.183  13.507  0.00  0.00    +0.000 OA
ATOM     17  O   UNL     1      45.004   3.063  11.578  0.00  0.00    +0.000 OA
ENDBRANCH   3  15
ENDBRANCH   1   6
BRANCH   1  18
ATOM     18  C   UNL     1      50.094   8.046  13.725  0.00  0.00    +0.000 C 
BRANCH  18  19
ATOM     19  C   UNL     1      50.430   9.006  14.870  0.00  0.00    +0.000 C 
BRANCH  19  20
ATOM     20  C   UNL     1      49.577   8.771  16.098  0.00  0.00    +0.000 A 
ATOM     21  C   UNL     1      49.101   9.849  16.853  0.00  0.00    +0.000 A 
ATOM     22  C   UNL     1      48.275   9.622  17.959  0.00  0.00    +0.000 A 
ATOM     23  C   UNL     1      47.920   8.321  18.331  0.00  0.00    +0.000 A 
ATOM     24  C   UNL     1      48.419   7.236  17.612  0.00  0.00    +0.000 A 
ATOM     25  C   UNL     1      49.240   7.468  16.499  0.00  0.00    +0.000 A 
BRANCH  24  26
ATOM     26  O   UNL     1      48.138   5.914  17.865  0.00  0.00    +0.000 OA
BRANCH  26  27
ATOM     27  C   UNL     1      48.905   5.199  18.865  0.00  0.00    +0.000 C 
ATOM     28  C   UNL     1      48.734   3.671  18.954  0.00  0.00    +0.000 C 
ATOM     29  N   UNL     1      48.426   3.763  20.387  0.00  0.00    +0.000 NA
ATOM     30  C   UNL     1      48.327   5.225  20.301  0.00  0.00    +0.000 C 
ATOM     31  H   UNL     1      49.171   3.430  20.999  0.00  0.00    +0.000 HD
ENDBRANCH  26  27
ENDBRANCH  24  26
ENDBRANCH  19  20
ENDBRANCH  18  19
ENDBRANCH   1  18
TORSDOF 8
ENDMDL
