MODEL 1
REMARK VINA RESULT:    -7.755      0.000      0.000
REMARK INTER + INTRA:         -10.924
REMARK INTER:                 -10.022
REMARK INTRA:                  -0.903
REMARK UNBOUND:                -0.903
REMARK  Name = 
REMARK  5 active torsions:
REMARK  status: ('A' for Active; 'I' for Inactive)
REMARK    1  A    between atoms: C_2  and  C_4
REMARK    2  A    between atoms: C_8  and  C_9
REMARK    3  A    between atoms: C_9  and  C_10
REMARK    4  A    between atoms: C_10  and  C_11
REMARK    5  A    between atoms: C_15  and  N_16
REMARK                            x       y       z     vdW  Elec       q    Type
REMARK                         _______ _______ _______ _____ _____    ______ ____
ROOT
ATOM      1  C   UNL     1      43.595   4.006  11.578  0.00  0.00    +0.000 C 
ENDROOT
BRANCH   1   2
ATOM      2  C   UNL     1      44.794   4.441  12.394  0.00  0.00    +0.000 A 
ATOM      3  C   UNL     1      45.732   3.525  12.885  0.00  0.00    +0.000 A 
ATOM      4  C   UNL     1      46.864   3.969  13.554  0.00  0.00    +0.000 A 
ATOM      5  C   UNL     1      47.097   5.333  13.701  0.00  0.00    +0.000 A 
ATOM      6  C   UNL     1      46.207   6.293  13.196  0.00  0.00    +0.000 A 
ATOM      7  C   UNL     1      45.041   5.818  12.576  0.00  0.00    +0.000 A 
BRANCH   6   8
ATOM      8  N   UNL     1      46.497   7.635  13.270  0.00  0.00    +0.000 N 
ATOM      9  C   UNL     1      45.500   8.661  12.941  0.00  0.00    +0.000 C 
ATOM     10  C   UNL     1      46.040   9.556  11.821  0.00  0.00    +0.000 C 
ATOM     11  O   UNL     1      47.299  10.145  12.195  0.00  0.00    +0.000 OA
ATOM     12  C   UNL     1      48.274   9.118  12.460  0.00  0.00    +0.000 C 
ATOM     13  C   UNL     1      47.829   8.162  13.587  0.00  0.00    +0.000 C 
ENDBRANCH   6   8
ENDBRANCH   1   2
BRANCH   1  14
ATOM     14  C   UNL     1      43.817   2.770  10.695  0.00  0.00    +0.000 C 
BRANCH  14  19
ATOM     15  C   UNL     1      46.374   2.237   7.918  0.00  0.00    +0.000 A 
ATOM     16  C   UNL     1      46.537   3.543   7.440  0.00  0.00    +0.000 A 
ATOM     17  C   UNL     1      45.837   4.596   8.030  0.00  0.00    +0.000 A 
ATOM     18  C   UNL     1      44.965   4.349   9.090  0.00  0.00    +0.000 A 
ATOM     19  C   UNL     1      44.787   3.046   9.575  0.00  0.00    +0.000 A 
ATOM     20  C   UNL     1      45.494   1.993   8.980  0.00  0.00    +0.000 A 
BRANCH  15  22
ATOM     21  N   UNL     1      46.643  -0.170   7.662  0.00  0.00    +0.000 N 
ATOM     22  C   UNL     1      47.076   1.078   7.313  0.00  0.00    +0.000 C 
ATOM     23  O   UNL     1      47.985   1.223   6.506  0.00  0.00    +0.000 OA
ATOM     24  H   UNL     1      47.059  -0.942   7.160  0.00  0.00    +0.000 HD
ATOM     25  H   UNL     1      45.748  -0.326   8.104  0.00  0.00    +0.000 HD
ENDBRANCH  15  22
ENDBRANCH  14  19
ENDBRANCH   1  14
TORSDOF 5
ENDMDL
MODEL 2
REMARK VINA RESULT:    -7.288      2.752      3.964
REMARK INTER + INTRA:         -10.321
REMARK INTER:                  -9.496
REMARK INTRA:                  -0.824
REMARK UNBOUND:                -0.903
REMARK  Name = 
REMARK  5 active torsions:
REMARK  status: ('A' for Active; 'I' for Inactive)
REMARK    1  A    between atoms: C_2  and  C_4
REMARK    2  A    between atoms: C_8  and  C_9
REMARK    3  A    between atoms: C_9  and  C_10
REMARK    4  A    between atoms: C_10  and  C_11
REMARK    5  A    between atoms: C_15  and  N_16
REMARK                            x       y       z     vdW  Elec       q    Type
REMARK                         _______ _______ _______ _____ _____    ______ ____
ROOT
ATOM      1  C   UNL     1      45.026   5.220  11.514  0.00  0.00    +0.000 C 
ENDROOT
BRANCH   1   2
ATOM      2  C   UNL     1      46.257   5.666  12.276  0.00  0.00    +0.000 A 
ATOM      3  C   UNL     1      47.094   6.686  11.807  0.00  0.00    +0.000 A 
ATOM      4  C   UNL     1      48.163   7.126  12.575  0.00  0.00    +0.000 A 
ATOM      5  C   UNL     1      48.382   6.587  13.839  0.00  0.00    +0.000 A 
ATOM      6  C   UNL     1      47.552   5.589  14.370  0.00  0.00    +0.000 A 
ATOM      7  C   UNL     1      46.514   5.120  13.550  0.00  0.00    +0.000 A 
BRANCH   6   8
ATOM      8  N   UNL     1      47.727   5.132  15.655  0.00  0.00    +0.000 N 
ATOM      9  C   UNL     1      48.530   5.871  16.636  0.00  0.00    +0.000 C 
ATOM     10  C   UNL     1      49.655   4.970  17.156  0.00  0.00    +0.000 C 
ATOM     11  O   UNL     1      49.125   3.755  17.716  0.00  0.00    +0.000 OA
ATOM     12  C   UNL     1      48.386   3.023  16.718  0.00  0.00    +0.000 C 
ATOM     13  C   UNL     1      47.216   3.843  16.134  0.00  0.00    +0.000 C 
ENDBRANCH   6   8
ENDBRANCH   1   2
BRANCH   1  14
ATOM     14  C   UNL     1      45.103   5.390   9.990  0.00  0.00    +0.000 C 
BRANCH  14  19
ATOM     15  C   UNL     1      46.367   2.791   7.504  0.00  0.00    +0.000 A 
ATOM     16  C   UNL     1      45.803   1.618   8.020  0.00  0.00    +0.000 A 
ATOM     17  C   UNL     1      44.997   1.672   9.158  0.00  0.00    +0.000 A 
ATOM     18  C   UNL     1      44.761   2.893   9.790  0.00  0.00    +0.000 A 
ATOM     19  C   UNL     1      45.325   4.074   9.289  0.00  0.00    +0.000 A 
ATOM     20  C   UNL     1      46.130   4.014   8.144  0.00  0.00    +0.000 A 
BRANCH  15  22
ATOM     21  N   UNL     1      48.551   2.414   6.495  0.00  0.00    +0.000 N 
ATOM     22  C   UNL     1      47.250   2.787   6.310  0.00  0.00    +0.000 C 
ATOM     23  O   UNL     1      46.831   3.071   5.196  0.00  0.00    +0.000 OA
ATOM     24  H   UNL     1      49.108   2.313   5.656  0.00  0.00    +0.000 HD
ATOM     25  H   UNL     1      48.861   1.928   7.324  0.00  0.00    +0.000 HD
ENDBRANCH  15  22
ENDBRANCH  14  19
ENDBRANCH   1  14
TORSDOF 5
ENDMDL
MODEL 3
REMARK VINA RESULT:    -7.254      1.945      2.926
REMARK INTER + INTRA:         -10.278
REMARK INTER:                  -9.858
REMARK INTRA:                  -0.419
REMARK UNBOUND:                -0.903
REMARK  Name = 
REMARK  5 active torsions:
REMARK  status: ('A' for Active; 'I' for Inactive)
REMARK    1  A    between atoms: C_2  and  C_4
REMARK    2  A    between atoms: C_8  and  C_9
REMARK    3  A    between atoms: C_9  and  C_10
REMARK    4  A    between atoms: C_10  and  C_11
REMARK    5  A    between atoms: C_15  and  N_16
REMARK                            x       y       z     vdW  Elec       q    Type
REMARK                         _______ _______ _______ _____ _____    ______ ____
ROOT
ATOM      1  C   UNL     1      43.274   3.930  11.508  0.00  0.00    +0.000 C 
ENDROOT
BRANCH   1   2
ATOM      2  C   UNL     1      44.275   4.990  11.917  0.00  0.00    +0.000 A 
ATOM      3  C   UNL     1      44.099   6.342  11.600  0.00  0.00    +0.000 A 
ATOM      4  C   UNL     1      44.992   7.296  12.067  0.00  0.00    +0.000 A 
ATOM      5  C   UNL     1      46.045   6.918  12.895  0.00  0.00    +0.000 A 
ATOM      6  C   UNL     1      46.246   5.582  13.272  0.00  0.00    +0.000 A 
ATOM      7  C   UNL     1      45.363   4.630  12.739  0.00  0.00    +0.000 A 
BRANCH   6   8
ATOM      8  N   UNL     1      47.236   5.238  14.162  0.00  0.00    +0.000 N 
ATOM      9  C   UNL     1      47.192   3.983  14.920  0.00  0.00    +0.000 C 
ATOM     10  C   UNL     1      47.240   4.291  16.420  0.00  0.00    +0.000 C 
ATOM     11  O   UNL     1      48.407   5.066  16.750  0.00  0.00    +0.000 OA
ATOM     12  C   UNL     1      48.397   6.316  16.033  0.00  0.00    +0.000 C 
ATOM     13  C   UNL     1      48.361   6.117  14.503  0.00  0.00    +0.000 C 
ENDBRANCH   6   8
ENDBRANCH   1   2
BRANCH   1  14
ATOM     14  C   UNL     1      43.882   2.643  10.931  0.00  0.00    +0.000 C 
BRANCH  14  19
ATOM     15  C   UNL     1      46.210   2.130   7.956  0.00  0.00    +0.000 A 
ATOM     16  C   UNL     1      46.144   3.384   7.335  0.00  0.00    +0.000 A 
ATOM     17  C   UNL     1      45.364   4.398   7.891  0.00  0.00    +0.000 A 
ATOM     18  C   UNL     1      44.641   4.164   9.060  0.00  0.00    +0.000 A 
ATOM     19  C   UNL     1      44.692   2.912   9.688  0.00  0.00    +0.000 A 
ATOM     20  C   UNL     1      45.478   1.898   9.128  0.00  0.00    +0.000 A 
BRANCH  15  22
ATOM     21  N   UNL     1      46.617  -0.260   7.723  0.00  0.00    +0.000 N 
ATOM     22  C   UNL     1      47.005   1.009   7.395  0.00  0.00    +0.000 C 
ATOM     23  O   UNL     1      47.951   1.201   6.643  0.00  0.00    +0.000 OA
ATOM     24  H   UNL     1      47.101  -1.009   7.247  0.00  0.00    +0.000 HD
ATOM     25  H   UNL     1      45.707  -0.462   8.112  0.00  0.00    +0.000 HD
ENDBRANCH  15  22
ENDBRANCH  14  19
ENDBRANCH   1  14
TORSDOF 5
ENDMDL
MODEL 4
REMARK VINA RESULT:    -7.009      2.852      7.278
REMARK INTER + INTRA:          -9.961
REMARK INTER:                  -9.113
REMARK INTRA:                  -0.848
REMARK UNBOUND:                -0.903
REMARK  Name = 
REMARK  5 active torsions:
REMARK  status: ('A' for Active; 'I' for Inactive)
REMARK    1  A    between atoms: C_2  and  C_4
REMARK    2  A    between atoms: C_8  and  C_9
REMARK    3  A    between atoms: C_9  and  C_10
REMARK    4  A    between atoms: C_10  and  C_11
REMARK    5  A    between atoms: C_15  and  N_16
REMARK                            x       y       z     vdW  Elec       q    Type
REMARK                         _______ _______ _______ _____ _____    ______ ____
ROOT
ATOM      1  C   UNL     1      45.692   6.355  12.628  0.00  0.00    +0.000 C 
ENDROOT
BRANCH   1   2
ATOM      2  C   UNL     1      45.043   5.066  12.170  0.00  0.00    +0.000 A 
ATOM      3  C   UNL     1      44.055   4.420  12.924  0.00  0.00    +0.000 A 
ATOM      4  C   UNL     1      43.422   3.288  12.431  0.00  0.00    +0.000 A 
ATOM      5  C   UNL     1      43.734   2.813  11.161  0.00  0.00    +0.000 A 
ATOM      6  C   UNL     1      44.689   3.443  10.350  0.00  0.00    +0.000 A 
ATOM      7  C   UNL     1      45.357   4.551  10.895  0.00  0.00    +0.000 A 
BRANCH   6   8
ATOM      8  N   UNL     1      44.920   3.015   9.064  0.00  0.00    +0.000 N 
ATOM      9  C   UNL     1      45.057   1.592   8.735  0.00  0.00    +0.000 C 
ATOM     10  C   UNL     1      46.414   1.353   8.065  0.00  0.00    +0.000 C 
ATOM     11  O   UNL     1      46.566   2.181   6.898  0.00  0.00    +0.000 OA
ATOM     12  C   UNL     1      46.480   3.574   7.257  0.00  0.00    +0.000 C 
ATOM     13  C   UNL     1      45.138   3.925   7.934  0.00  0.00    +0.000 C 
ENDBRANCH   6   8
ENDBRANCH   1   2
BRANCH   1  14
ATOM     14  C   UNL     1      47.227   6.338  12.668  0.00  0.00    +0.000 C 
BRANCH  14  19
ATOM     15  C   UNL     1      47.951   4.899  16.123  0.00  0.00    +0.000 A 
ATOM     16  C   UNL     1      48.781   5.888  16.665  0.00  0.00    +0.000 A 
ATOM     17  C   UNL     1      49.088   7.028  15.921  0.00  0.00    +0.000 A 
ATOM     18  C   UNL     1      48.577   7.180  14.631  0.00  0.00    +0.000 A 
ATOM     19  C   UNL     1      47.750   6.195  14.074  0.00  0.00    +0.000 A 
ATOM     20  C   UNL     1      47.444   5.054  14.827  0.00  0.00    +0.000 A 
BRANCH  15  22
ATOM     21  N   UNL     1      48.648   2.937  17.385  0.00  0.00    +0.000 N 
ATOM     22  C   UNL     1      47.612   3.657  16.862  0.00  0.00    +0.000 C 
ATOM     23  O   UNL     1      46.453   3.302  17.031  0.00  0.00    +0.000 OA
ATOM     24  H   UNL     1      48.393   2.156  17.975  0.00  0.00    +0.000 HD
ATOM     25  H   UNL     1      49.574   3.325  17.496  0.00  0.00    +0.000 HD
ENDBRANCH  15  22
ENDBRANCH  14  19
ENDBRANCH   1  14
TORSDOF 5
ENDMDL
MODEL 5
REMARK VINA RESULT:    -6.842      2.115      3.015
REMARK INTER + INTRA:          -9.744
REMARK INTER:                  -9.102
REMARK INTRA:                  -0.642
REMARK UNBOUND:                -0.903
REMARK  Name = 
REMARK  5 active torsions:
REMARK  status: ('A' for Active; 'I' for Inactive)
REMARK    1  A    between atoms: C_2  and  C_4
REMARK    2  A    between atoms: C_8  and  C_9
REMARK    3  A    between atoms: C_9  and  C_10
REMARK    4  A    between atoms: C_10  and  C_11
REMARK    5  A    between atoms: C_15  and  N_16
REMARK                            x       y       z     vdW  Elec       q    Type
REMARK                         _______ _______ _______ _____ _____    ______ ____
ROOT
ATOM      1  C   UNL     1      45.131   4.949  11.022  0.00  0.00    +0.000 C 
ENDROOT
BRANCH   1   2
ATOM      2  C   UNL     1      45.517   6.234  11.724  0.00  0.00    +0.000 A 
ATOM      3  C   UNL     1      46.603   6.303  12.606  0.00  0.00    +0.000 A 
ATOM      4  C   UNL     1      46.980   7.517  13.163  0.00  0.00    +0.000 A 
ATOM      5  C   UNL     1      46.306   8.683  12.812  0.00  0.00    +0.000 A 
ATOM      6  C   UNL     1      45.236   8.674  11.907  0.00  0.00    +0.000 A 
ATOM      7  C   UNL     1      44.837   7.426  11.402  0.00  0.00    +0.000 A 
BRANCH   6   8
ATOM      8  N   UNL     1      44.641   9.846  11.501  0.00  0.00    +0.000 N 
ATOM      9  C   UNL     1      43.372   9.855  10.764  0.00  0.00    +0.000 C 
ATOM     10  C   UNL     1      43.565  10.580   9.428  0.00  0.00    +0.000 C 
ATOM     11  O   UNL     1      44.065  11.913   9.632  0.00  0.00    +0.000 OA
ATOM     12  C   UNL     1      45.336  11.874  10.311  0.00  0.00    +0.000 C 
ATOM     13  C   UNL     1      45.249  11.169  11.681  0.00  0.00    +0.000 C 
ENDBRANCH   6   8
ENDBRANCH   1   2
BRANCH   1  14
ATOM     14  C   UNL     1      45.134   5.015   9.488  0.00  0.00    +0.000 C 
BRANCH  14  19
ATOM     15  C   UNL     1      46.651   2.363   7.208  0.00  0.00    +0.000 A 
ATOM     16  C   UNL     1      46.119   1.190   7.757  0.00  0.00    +0.000 A 
ATOM     17  C   UNL     1      45.255   1.260   8.849  0.00  0.00    +0.000 A 
ATOM     18  C   UNL     1      44.926   2.497   9.404  0.00  0.00    +0.000 A 
ATOM     19  C   UNL     1      45.456   3.679   8.869  0.00  0.00    +0.000 A 
ATOM     20  C   UNL     1      46.322   3.603   7.770  0.00  0.00    +0.000 A 
BRANCH  15  22
ATOM     21  N   UNL     1      47.448   3.321   5.115  0.00  0.00    +0.000 N 
ATOM     22  C   UNL     1      47.593   2.345   6.060  0.00  0.00    +0.000 C 
ATOM     23  O   UNL     1      48.488   1.514   5.972  0.00  0.00    +0.000 OA
ATOM     24  H   UNL     1      48.163   3.357   4.401  0.00  0.00    +0.000 HD
ATOM     25  H   UNL     1      46.910   4.159   5.282  0.00  0.00    +0.000 HD
ENDBRANCH  15  22
ENDBRANCH  14  19
ENDBRANCH   1  14
TORSDOF 5
ENDMDL
MODEL 6
REMARK VINA RESULT:    -6.786      1.843      7.033
REMARK INTER + INTRA:          -9.672
REMARK INTER:                  -8.799
REMARK INTRA:                  -0.873
REMARK UNBOUND:                -0.903
REMARK  Name = 
REMARK  5 active torsions:
REMARK  status: ('A' for Active; 'I' for Inactive)
REMARK    1  A    between atoms: C_2  and  C_4
REMARK    2  A    between atoms: C_8  and  C_9
REMARK    3  A    between atoms: C_9  and  C_10
REMARK    4  A    between atoms: C_10  and  C_11
REMARK    5  A    between atoms: C_15  and  N_16
REMARK                            x       y       z     vdW  Elec       q    Type
REMARK                         _______ _______ _______ _____ _____    ______ ____
ROOT
ATOM      1  C   UNL     1      46.501   5.704  13.411  0.00  0.00    +0.000 C 
ENDROOT
BRANCH   1   2
ATOM      2  C   UNL     1      45.350   5.017  12.707  0.00  0.00    +0.000 A 
ATOM      3  C   UNL     1      44.044   5.047  13.213  0.00  0.00    +0.000 A 
ATOM      4  C   UNL     1      42.999   4.480  12.495  0.00  0.00    +0.000 A 
ATOM      5  C   UNL     1      43.237   3.919  11.245  0.00  0.00    +0.000 A 
ATOM      6  C   UNL     1      44.519   3.895  10.677  0.00  0.00    +0.000 A 
ATOM      7  C   UNL     1      45.568   4.421  11.448  0.00  0.00    +0.000 A 
BRANCH   6   8
ATOM      8  N   UNL     1      44.721   3.419   9.403  0.00  0.00    +0.000 N 
ATOM      9  C   UNL     1      44.654   1.986   9.093  0.00  0.00    +0.000 C 
ATOM     10  C   UNL     1      45.980   1.538   8.469  0.00  0.00    +0.000 C 
ATOM     11  O   UNL     1      46.288   2.317   7.299  0.00  0.00    +0.000 OA
ATOM     12  C   UNL     1      46.400   3.712   7.640  0.00  0.00    +0.000 C 
ATOM     13  C   UNL     1      45.106   4.269   8.271  0.00  0.00    +0.000 C 
ENDBRANCH   6   8
ENDBRANCH   1   2
BRANCH   1  14
ATOM     14  C   UNL     1      47.527   6.374  12.486  0.00  0.00    +0.000 C 
BRANCH  14  19
ATOM     15  C   UNL     1      45.541   9.551  11.783  0.00  0.00    +0.000 A 
ATOM     16  C   UNL     1      46.549  10.522  11.825  0.00  0.00    +0.000 A 
ATOM     17  C   UNL     1      47.872  10.145  12.059  0.00  0.00    +0.000 A 
ATOM     18  C   UNL     1      48.191   8.803  12.263  0.00  0.00    +0.000 A 
ATOM     19  C   UNL     1      47.192   7.821  12.230  0.00  0.00    +0.000 A 
ATOM     20  C   UNL     1      45.866   8.205  11.991  0.00  0.00    +0.000 A 
BRANCH  15  22
ATOM     21  N   UNL     1      43.327   8.957  10.960  0.00  0.00    +0.000 N 
ATOM     22  C   UNL     1      44.115   9.899  11.560  0.00  0.00    +0.000 C 
ATOM     23  O   UNL     1      43.646  10.969  11.925  0.00  0.00    +0.000 OA
ATOM     24  H   UNL     1      42.339   9.169  10.915  0.00  0.00    +0.000 HD
ATOM     25  H   UNL     1      43.602   7.989  10.889  0.00  0.00    +0.000 HD
ENDBRANCH  15  22
ENDBRANCH  14  19
ENDBRANCH   1  14
TORSDOF 5
ENDMDL
MODEL 7
REMARK VINA RESULT:    -6.602      3.451      7.387
REMARK INTER + INTRA:          -9.434
REMARK INTER:                  -8.413
REMARK INTRA:                  -1.021
REMARK UNBOUND:                -0.903
REMARK  Name = 
REMARK  5 active torsions:
REMARK  status: ('A' for Active; 'I' for Inactive)
REMARK    1  A    between atoms: C_2  and  C_4
REMARK    2  A    between atoms: C_8  and  C_9
REMARK    3  A    between atoms: C_9  and  C_10
REMARK    4  A    between atoms: C_10  and  C_11
REMARK    5  A    between atoms: C_15  and  N_16
REMARK                            x       y       z     vdW  Elec       q    Type
REMARK                         _______ _______ _______ _____ _____    ______ ____
ROOT
ATOM      1  C   UNL     1      48.684   6.904  13.257  0.00  0.00    +0.000 C 
ENDROOT
BRANCH   1   2
ATOM      2  C   UNL     1      47.292   7.231  12.761  0.00  0.00    +0.000 A 
ATOM      3  C   UNL     1      46.793   8.539  12.750  0.00  0.00    +0.000 A 
ATOM      4  C   UNL     1      45.545   8.811  12.207  0.00  0.00    +0.000 A 
ATOM      5  C   UNL     1      44.800   7.789  11.627  0.00  0.00    +0.000 A 
ATOM      6  C   UNL     1      45.268   6.469  11.579  0.00  0.00    +0.000 A 
ATOM      7  C   UNL     1      46.507   6.209  12.187  0.00  0.00    +0.000 A 
BRANCH   6   8
ATOM      8  N   UNL     1      44.561   5.489  10.923  0.00  0.00    +0.000 N 
ATOM      9  C   UNL     1      43.203   5.111  11.329  0.00  0.00    +0.000 C 
ATOM     10  C   UNL     1      43.167   3.615  11.656  0.00  0.00    +0.000 C 
ATOM     11  O   UNL     1      43.619   2.832  10.537  0.00  0.00    +0.000 OA
ATOM     12  C   UNL     1      44.973   3.185  10.192  0.00  0.00    +0.000 C 
ATOM     13  C   UNL     1      45.118   4.679   9.833  0.00  0.00    +0.000 C 
ENDBRANCH   6   8
ENDBRANCH   1   2
BRANCH   1  14
ATOM     14  C   UNL     1      49.109   7.629  14.542  0.00  0.00    +0.000 C 
BRANCH  14  19
ATOM     15  C   UNL     1      48.100   4.745  16.822  0.00  0.00    +0.000 A 
ATOM     16  C   UNL     1      48.129   5.363  18.078  0.00  0.00    +0.000 A 
ATOM     17  C   UNL     1      48.454   6.716  18.183  0.00  0.00    +0.000 A 
ATOM     18  C   UNL     1      48.761   7.453  17.039  0.00  0.00    +0.000 A 
ATOM     19  C   UNL     1      48.742   6.846  15.777  0.00  0.00    +0.000 A 
ATOM     20  C   UNL     1      48.412   5.488  15.676  0.00  0.00    +0.000 A 
BRANCH  15  22
ATOM     21  N   UNL     1      46.988   2.724  17.603  0.00  0.00    +0.000 N 
ATOM     22  C   UNL     1      47.783   3.305  16.655  0.00  0.00    +0.000 C 
ATOM     23  O   UNL     1      48.183   2.662  15.693  0.00  0.00    +0.000 OA
ATOM     24  H   UNL     1      46.695   1.774  17.416  0.00  0.00    +0.000 HD
ATOM     25  H   UNL     1      46.433   3.267  18.249  0.00  0.00    +0.000 HD
ENDBRANCH  15  22
ENDBRANCH  14  19
ENDBRANCH   1  14
TORSDOF 5
ENDMDL
MODEL 8
REMARK VINA RESULT:    -6.482      3.318      5.274
REMARK INTER + INTRA:          -9.279
REMARK INTER:                  -8.413
REMARK INTRA:                  -0.866
REMARK UNBOUND:                -0.903
REMARK  Name = 
REMARK  5 active torsions:
REMARK  status: ('A' for Active; 'I' for Inactive)
REMARK    1  A    between atoms: C_2  and  C_4
REMARK    2  A    between atoms: C_8  and  C_9
REMARK    3  A    between atoms: C_9  and  C_10
REMARK    4  A    between atoms: C_10  and  C_11
REMARK    5  A    between atoms: C_15  and  N_16
REMARK                            x       y       z     vdW  Elec       q    Type
REMARK                         _______ _______ _______ _____ _____    ______ ____
ROOT
ATOM      1  C   UNL     1      47.241   7.348  12.096  0.00  0.00    +0.000 C 
ENDROOT
BRANCH   1   2
ATOM      2  C   UNL     1      48.206   7.176  13.250  0.00  0.00    +0.000 A 
ATOM      3  C   UNL     1      49.366   7.951  13.373  0.00  0.00    +0.000 A 
ATOM      4  C   UNL     1      50.181   7.826  14.489  0.00  0.00    +0.000 A 
ATOM      5  C   UNL     1      49.824   6.959  15.518  0.00  0.00    +0.000 A 
ATOM      6  C   UNL     1      48.655   6.187  15.461  0.00  0.00    +0.000 A 
ATOM      7  C   UNL     1      47.879   6.289  14.296  0.00  0.00    +0.000 A 
BRANCH   6   8
ATOM      8  N   UNL     1      48.270   5.405  16.525  0.00  0.00    +0.000 N 
ATOM      9  C   UNL     1      48.812   5.611  17.873  0.00  0.00    +0.000 C 
ATOM     10  C   UNL     1      49.471   4.316  18.359  0.00  0.00    +0.000 C 
ATOM     11  O   UNL     1      48.539   3.220  18.328  0.00  0.00    +0.000 OA
ATOM     12  C   UNL     1      48.063   3.005  16.985  0.00  0.00    +0.000 C 
ATOM     13  C   UNL     1      47.368   4.254  16.401  0.00  0.00    +0.000 C 
ENDBRANCH   6   8
ENDBRANCH   1   2
BRANCH   1  14
ATOM     14  C   UNL     1      45.758   7.413  12.486  0.00  0.00    +0.000 C 
BRANCH  14  19
ATOM     15  C   UNL     1      44.597   4.657  10.121  0.00  0.00    +0.000 A 
ATOM     16  C   UNL     1      43.571   4.067  10.869  0.00  0.00    +0.000 A 
ATOM     17  C   UNL     1      43.242   4.573  12.126  0.00  0.00    +0.000 A 
ATOM     18  C   UNL     1      43.941   5.662  12.646  0.00  0.00    +0.000 A 
ATOM     19  C   UNL     1      44.975   6.259  11.912  0.00  0.00    +0.000 A 
ATOM     20  C   UNL     1      45.299   5.748  10.649  0.00  0.00    +0.000 A 
BRANCH  15  22
ATOM     21  N   UNL     1      44.369   3.024   8.329  0.00  0.00    +0.000 N 
ATOM     22  C   UNL     1      45.003   4.144   8.789  0.00  0.00    +0.000 C 
ATOM     23  O   UNL     1      45.846   4.712   8.107  0.00  0.00    +0.000 OA
ATOM     24  H   UNL     1      44.581   2.753   7.378  0.00  0.00    +0.000 HD
ATOM     25  H   UNL     1      43.505   2.689   8.731  0.00  0.00    +0.000 HD
ENDBRANCH  15  22
ENDBRANCH  14  19
ENDBRANCH   1  14
TORSDOF 5
ENDMDL
MODEL 9
REMARK VINA RESULT:    -6.470      4.281      7.743
REMARK INTER + INTRA:          -9.264
REMARK INTER:                  -8.332
REMARK INTRA:                  -0.932
REMARK UNBOUND:                -0.903
REMARK  Name = 
REMARK  5 active torsions:
REMARK  status: ('A' for Active; 'I' for Inactive)
REMARK    1  A    between atoms: C_2  and  C_4
REMARK    2  A    between atoms: C_8  and  C_9
REMARK    3  A    between atoms: C_9  and  C_10
REMARK    4  A    between atoms: C_10  and  C_11
REMARK    5  A    between atoms: C_15  and  N_16
REMARK                            x       y       z     vdW  Elec       q    Type
REMARK                         _______ _______ _______ _____ _____    ______ ____
ROOT
ATOM      1  C   UNL     1      49.186   6.770  14.896  0.00  0.00    +0.000 C 
ENDROOT
BRANCH   1   2
ATOM      2  C   UNL     1      48.182   6.805  13.763  0.00  0.00    +0.000 A 
ATOM      3  C   UNL     1      48.371   7.600  12.626  0.00  0.00    +0.000 A 
ATOM      4  C   UNL     1      47.472   7.540  11.569  0.00  0.00    +0.000 A 
ATOM      5  C   UNL     1      46.402   6.653  11.616  0.00  0.00    +0.000 A 
ATOM      6  C   UNL     1      46.188   5.809  12.715  0.00  0.00    +0.000 A 
ATOM      7  C   UNL     1      47.076   5.931  13.795  0.00  0.00    +0.000 A 
BRANCH   6   8
ATOM      8  N   UNL     1      45.179   4.874  12.705  0.00  0.00    +0.000 N 
ATOM      9  C   UNL     1      45.426   3.473  12.348  0.00  0.00    +0.000 C 
ATOM     10  C   UNL     1      44.532   3.084  11.166  0.00  0.00    +0.000 C 
ATOM     11  O   UNL     1      43.145   3.313  11.471  0.00  0.00    +0.000 OA
ATOM     12  C   UNL     1      42.920   4.706  11.766  0.00  0.00    +0.000 C 
ATOM     13  C   UNL     1      43.770   5.199  12.956  0.00  0.00    +0.000 C 
ENDBRANCH   6   8
ENDBRANCH   1   2
BRANCH   1  14
ATOM     14  C   UNL     1      48.619   7.103  16.284  0.00  0.00    +0.000 C 
BRANCH  14  19
ATOM     15  C   UNL     1      49.228   3.583  17.615  0.00  0.00    +0.000 A 
ATOM     16  C   UNL     1      48.774   3.705  18.934  0.00  0.00    +0.000 A 
ATOM     17  C   UNL     1      48.253   4.918  19.384  0.00  0.00    +0.000 A 
ATOM     18  C   UNL     1      48.192   6.015  18.525  0.00  0.00    +0.000 A 
ATOM     19  C   UNL     1      48.649   5.910  17.204  0.00  0.00    +0.000 A 
ATOM     20  C   UNL     1      49.169   4.689  16.757  0.00  0.00    +0.000 A 
BRANCH  15  22
ATOM     21  N   UNL     1      50.810   1.743  17.824  0.00  0.00    +0.000 N 
ATOM     22  C   UNL     1      49.813   2.323  17.091  0.00  0.00    +0.000 C 
ATOM     23  O   UNL     1      49.403   1.799  16.064  0.00  0.00    +0.000 OA
ATOM     24  H   UNL     1      51.120   0.833  17.510  0.00  0.00    +0.000 HD
ATOM     25  H   UNL     1      50.987   1.992  18.786  0.00  0.00    +0.000 HD
ENDBRANCH  15  22
ENDBRANCH  14  19
ENDBRANCH   1  14
TORSDOF 5
ENDMDL
