MODEL 1
REMARK VINA RESULT:    -9.428      0.000      0.000
REMARK INTER + INTRA:         -11.545
REMARK INTER:                 -11.632
REMARK INTRA:                   0.087
REMARK UNBOUND:                 0.087
REMARK  Name = 
REMARK  4 active torsions:
REMARK  status: ('A' for Active; 'I' for Inactive)
REMARK    1  A    between atoms: C_2  and  C_5
REMARK    2  A    between atoms: N_9  and  C_10
REMARK    3  A    between atoms: C_10  and  C_11
REMARK    4  A    between atoms: C_15  and  C_16
REMARK                            x       y       z     vdW  Elec       q    Type
REMARK                         _______ _______ _______ _____ _____    ______ ____
ROOT
ATOM      1  C   UNL     1      43.865   4.804  11.602  0.00  0.00    +0.000 C 
ATOM      2  C   UNL     1      42.601   5.304  12.284  0.00  0.00    +0.000 C 
ATOM      3  C   UNL     1      43.108   6.033  11.088  0.00  0.00    +0.000 C 
ENDROOT
BRANCH   1   8
ATOM      4  C   UNL     1      46.287   2.712   7.631  0.00  0.00    +0.000 A 
ATOM      5  C   UNL     1      45.693   1.758   8.414  0.00  0.00    +0.000 A 
ATOM      6  N   UNL     1      44.903   2.046   9.467  0.00  0.00    +0.000 NA
ATOM      7  C   UNL     1      44.693   3.343   9.752  0.00  0.00    +0.000 A 
ATOM      8  N   UNL     1      43.804   3.579  10.801  0.00  0.00    +0.000 N 
ATOM      9  N   UNL     1      45.272   4.346   9.076  0.00  0.00    +0.000 NA
ATOM     10  C   UNL     1      46.047   4.006   8.024  0.00  0.00    +0.000 A 
ATOM     11  H   UNL     1      43.666   2.691  11.268  0.00  0.00    +0.000 HD
BRANCH   4  13
ATOM     12  F   UNL     1      46.697   3.018   5.307  0.00  0.00    +0.000 F 
ATOM     13  C   UNL     1      47.106   2.379   6.439  0.00  0.00    +0.000 C 
ATOM     14  F   UNL     1      47.093   1.051   6.139  0.00  0.00    +0.000 F 
ATOM     15  F   UNL     1      48.416   2.711   6.597  0.00  0.00    +0.000 F 
ENDBRANCH   4  13
ENDBRANCH   1   8
BRANCH   1  16
ATOM     16  C   UNL     1      45.242   5.153  12.157  0.00  0.00    +0.000 A 
ATOM     17  C   UNL     1      45.916   6.310  11.731  0.00  0.00    +0.000 A 
ATOM     18  C   UNL     1      47.041   6.781  12.406  0.00  0.00    +0.000 A 
ATOM     19  C   UNL     1      47.510   6.102  13.529  0.00  0.00    +0.000 A 
ATOM     20  C   UNL     1      46.905   4.910  13.959  0.00  0.00    +0.000 A 
ATOM     21  C   UNL     1      45.805   4.430  13.223  0.00  0.00    +0.000 A 
BRANCH  20  22
ATOM     22  C   UNL     1      47.313   4.256  15.214  0.00  0.00    +0.000 A 
ATOM     23  C   UNL     1      47.325   4.913  16.444  0.00  0.00    +0.000 A 
ATOM     24  C   UNL     1      47.866   4.268  17.554  0.00  0.00    +0.000 A 
ATOM     25  C   UNL     1      48.379   2.985  17.413  0.00  0.00    +0.000 A 
ATOM     26  C   UNL     1      48.312   2.391  16.167  0.00  0.00    +0.000 A 
ATOM     27  N   UNL     1      47.788   2.991  15.077  0.00  0.00    +0.000 NA
ENDBRANCH  20  22
ENDBRANCH   1  16
TORSDOF 4
ENDMDL
MODEL 2
REMARK VINA RESULT:    -8.749      1.893      3.712
REMARK INTER + INTRA:         -10.708
REMARK INTER:                 -10.754
REMARK INTRA:                   0.046
REMARK UNBOUND:                 0.087
REMARK  Name = 
REMARK  4 active torsions:
REMARK  status: ('A' for Active; 'I' for Inactive)
REMARK    1  A    between atoms: C_2  and  C_5
REMARK    2  A    between atoms: N_9  and  C_10
REMARK    3  A    between atoms: C_10  and  C_11
REMARK    4  A    between atoms: C_15  and  C_16
REMARK                            x       y       z     vdW  Elec       q    Type
REMARK                         _______ _______ _______ _____ _____    ______ ____
ROOT
ATOM      1  C   UNL     1      43.708   4.839  11.645  0.00  0.00    +0.000 C 
ATOM      2  C   UNL     1      42.382   5.413  12.120  0.00  0.00    +0.000 C 
ATOM      3  C   UNL     1      43.090   6.081  10.993  0.00  0.00    +0.000 C 
ENDROOT
BRANCH   1   8
ATOM      4  C   UNL     1      46.208   2.784   7.702  0.00  0.00    +0.000 A 
ATOM      5  C   UNL     1      45.675   1.819   8.516  0.00  0.00    +0.000 A 
ATOM      6  N   UNL     1      44.880   2.090   9.569  0.00  0.00    +0.000 NA
ATOM      7  C   UNL     1      44.600   3.380   9.824  0.00  0.00    +0.000 A 
ATOM      8  N   UNL     1      43.709   3.592  10.875  0.00  0.00    +0.000 N 
ATOM      9  N   UNL     1      45.115   4.396   9.116  0.00  0.00    +0.000 NA
ATOM     10  C   UNL     1      45.898   4.073   8.065  0.00  0.00    +0.000 A 
ATOM     11  H   UNL     1      43.625   2.710  11.366  0.00  0.00    +0.000 HD
BRANCH   4  13
ATOM     12  F   UNL     1      48.352   2.770   6.669  0.00  0.00    +0.000 F 
ATOM     13  C   UNL     1      47.033   2.467   6.510  0.00  0.00    +0.000 C 
ATOM     14  F   UNL     1      46.632   3.135   5.394  0.00  0.00    +0.000 F 
ATOM     15  F   UNL     1      46.994   1.146   6.186  0.00  0.00    +0.000 F 
ENDBRANCH   4  13
ENDBRANCH   1   8
BRANCH   1  16
ATOM     16  C   UNL     1      45.004   5.149  12.387  0.00  0.00    +0.000 A 
ATOM     17  C   UNL     1      45.620   4.178  13.195  0.00  0.00    +0.000 A 
ATOM     18  C   UNL     1      46.920   4.348  13.666  0.00  0.00    +0.000 A 
ATOM     19  C   UNL     1      47.634   5.496  13.329  0.00  0.00    +0.000 A 
ATOM     20  C   UNL     1      47.042   6.521  12.573  0.00  0.00    +0.000 A 
ATOM     21  C   UNL     1      45.709   6.343  12.159  0.00  0.00    +0.000 A 
BRANCH  20  22
ATOM     22  C   UNL     1      47.827   7.677  12.107  0.00  0.00    +0.000 A 
ATOM     23  C   UNL     1      49.180   7.593  11.778  0.00  0.00    +0.000 A 
ATOM     24  C   UNL     1      49.882   8.762  11.490  0.00  0.00    +0.000 A 
ATOM     25  C   UNL     1      49.221   9.983  11.536  0.00  0.00    +0.000 A 
ATOM     26  C   UNL     1      47.875   9.982  11.849  0.00  0.00    +0.000 A 
ATOM     27  N   UNL     1      47.169   8.865  12.125  0.00  0.00    +0.000 NA
ENDBRANCH  20  22
ENDBRANCH   1  16
TORSDOF 4
ENDMDL
MODEL 3
REMARK VINA RESULT:    -7.916      4.350      7.884
REMARK INTER + INTRA:          -9.680
REMARK INTER:                  -9.295
REMARK INTRA:                  -0.384
REMARK UNBOUND:                 0.087
REMARK  Name = 
REMARK  4 active torsions:
REMARK  status: ('A' for Active; 'I' for Inactive)
REMARK    1  A    between atoms: C_2  and  C_5
REMARK    2  A    between atoms: N_9  and  C_10
REMARK    3  A    between atoms: C_10  and  C_11
REMARK    4  A    between atoms: C_15  and  C_16
REMARK                            x       y       z     vdW  Elec       q    Type
REMARK                         _______ _______ _______ _____ _____    ______ ____
ROOT
ATOM      1  C   UNL     1      48.290   7.577  12.996  0.00  0.00    +0.000 C 
ATOM      2  C   UNL     1      49.505   7.255  12.140  0.00  0.00    +0.000 C 
ATOM      3  C   UNL     1      49.015   8.661  12.190  0.00  0.00    +0.000 C 
ENDROOT
BRANCH   1   8
ATOM      4  C   UNL     1      48.285   4.280  16.888  0.00  0.00    +0.000 A 
ATOM      5  C   UNL     1      48.979   5.420  17.198  0.00  0.00    +0.000 A 
ATOM      6  N   UNL     1      49.046   6.493  16.387  0.00  0.00    +0.000 NA
ATOM      7  C   UNL     1      48.392   6.430  15.214  0.00  0.00    +0.000 A 
ATOM      8  N   UNL     1      48.432   7.600  14.454  0.00  0.00    +0.000 N 
ATOM      9  N   UNL     1      47.730   5.340  14.800  0.00  0.00    +0.000 NA
ATOM     10  C   UNL     1      47.683   4.295  15.653  0.00  0.00    +0.000 A 
ATOM     11  H   UNL     1      49.141   8.191  14.871  0.00  0.00    +0.000 HD
BRANCH   4  13
ATOM     12  F   UNL     1      46.956   2.511  17.765  0.00  0.00    +0.000 F 
ATOM     13  C   UNL     1      48.169   3.129  17.818  0.00  0.00    +0.000 C 
ATOM     14  F   UNL     1      48.349   3.480  19.121  0.00  0.00    +0.000 F 
ATOM     15  F   UNL     1      49.089   2.159  17.563  0.00  0.00    +0.000 F 
ENDBRANCH   4  13
ENDBRANCH   1   8
BRANCH   1  16
ATOM     16  C   UNL     1      46.879   7.309  12.482  0.00  0.00    +0.000 A 
ATOM     17  C   UNL     1      45.879   8.291  12.581  0.00  0.00    +0.000 A 
ATOM     18  C   UNL     1      44.673   8.167  11.894  0.00  0.00    +0.000 A 
ATOM     19  C   UNL     1      44.448   7.054  11.086  0.00  0.00    +0.000 A 
ATOM     20  C   UNL     1      45.392   6.018  11.001  0.00  0.00    +0.000 A 
ATOM     21  C   UNL     1      46.576   6.148  11.751  0.00  0.00    +0.000 A 
BRANCH  20  22
ATOM     22  C   UNL     1      45.219   4.903  10.055  0.00  0.00    +0.000 A 
ATOM     23  C   UNL     1      44.594   3.705  10.400  0.00  0.00    +0.000 A 
ATOM     24  C   UNL     1      44.605   2.647   9.493  0.00  0.00    +0.000 A 
ATOM     25  C   UNL     1      45.236   2.808   8.266  0.00  0.00    +0.000 A 
ATOM     26  C   UNL     1      45.815   4.032   7.989  0.00  0.00    +0.000 A 
ATOM     27  N   UNL     1      45.813   5.075   8.845  0.00  0.00    +0.000 NA
ENDBRANCH  20  22
ENDBRANCH   1  16
TORSDOF 4
ENDMDL
MODEL 4
REMARK VINA RESULT:    -7.432      3.752      6.489
REMARK INTER + INTRA:          -9.083
REMARK INTER:                  -8.430
REMARK INTRA:                  -0.654
REMARK UNBOUND:                 0.087
REMARK  Name = 
REMARK  4 active torsions:
REMARK  status: ('A' for Active; 'I' for Inactive)
REMARK    1  A    between atoms: C_2  and  C_5
REMARK    2  A    between atoms: N_9  and  C_10
REMARK    3  A    between atoms: C_10  and  C_11
REMARK    4  A    between atoms: C_15  and  C_16
REMARK                            x       y       z     vdW  Elec       q    Type
REMARK                         _______ _______ _______ _____ _____    ______ ____
ROOT
ATOM      1  C   UNL     1      47.217   7.502  13.207  0.00  0.00    +0.000 C 
ATOM      2  C   UNL     1      48.660   7.024  13.180  0.00  0.00    +0.000 C 
ATOM      3  C   UNL     1      48.106   7.558  14.455  0.00  0.00    +0.000 C 
ENDROOT
BRANCH   1   8
ATOM      4  C   UNL     1      45.193   4.145   9.944  0.00  0.00    +0.000 A 
ATOM      5  C   UNL     1      44.957   3.784  11.244  0.00  0.00    +0.000 A 
ATOM      6  N   UNL     1      45.292   4.550  12.301  0.00  0.00    +0.000 NA
ATOM      7  C   UNL     1      45.889   5.729  12.053  0.00  0.00    +0.000 A 
ATOM      8  N   UNL     1      46.138   6.511  13.180  0.00  0.00    +0.000 N 
ATOM      9  N   UNL     1      46.207   6.144  10.818  0.00  0.00    +0.000 NA
ATOM     10  C   UNL     1      45.841   5.347   9.793  0.00  0.00    +0.000 A 
ATOM     11  H   UNL     1      46.000   5.912  13.985  0.00  0.00    +0.000 HD
BRANCH   4  13
ATOM     12  F   UNL     1      44.042   2.219   9.149  0.00  0.00    +0.000 F 
ATOM     13  C   UNL     1      44.763   3.318   8.789  0.00  0.00    +0.000 C 
ATOM     14  F   UNL     1      45.808   2.851   8.052  0.00  0.00    +0.000 F 
ATOM     15  F   UNL     1      43.975   4.008   7.920  0.00  0.00    +0.000 F 
ENDBRANCH   4  13
ENDBRANCH   1   8
BRANCH   1  16
ATOM     16  C   UNL     1      46.843   8.888  12.691  0.00  0.00    +0.000 A 
ATOM     17  C   UNL     1      47.823   9.749  12.168  0.00  0.00    +0.000 A 
ATOM     18  C   UNL     1      47.474  10.898  11.462  0.00  0.00    +0.000 A 
ATOM     19  C   UNL     1      46.129  11.204  11.259  0.00  0.00    +0.000 A 
ATOM     20  C   UNL     1      45.114  10.406  11.811  0.00  0.00    +0.000 A 
ATOM     21  C   UNL     1      45.501   9.283  12.567  0.00  0.00    +0.000 A 
BRANCH  20  22
ATOM     22  C   UNL     1      43.696  10.650  11.497  0.00  0.00    +0.000 A 
ATOM     23  C   UNL     1      42.908   9.742  10.790  0.00  0.00    +0.000 A 
ATOM     24  C   UNL     1      41.621  10.114  10.406  0.00  0.00    +0.000 A 
ATOM     25  C   UNL     1      41.150  11.378  10.736  0.00  0.00    +0.000 A 
ATOM     26  C   UNL     1      41.983  12.214  11.457  0.00  0.00    +0.000 A 
ATOM     27  N   UNL     1      43.230  11.877  11.848  0.00  0.00    +0.000 NA
ENDBRANCH  20  22
ENDBRANCH   1  16
TORSDOF 4
ENDMDL
MODEL 5
REMARK VINA RESULT:    -7.318      3.767      5.301
REMARK INTER + INTRA:          -8.942
REMARK INTER:                  -8.343
REMARK INTRA:                  -0.599
REMARK UNBOUND:                 0.087
REMARK  Name = 
REMARK  4 active torsions:
REMARK  status: ('A' for Active; 'I' for Inactive)
REMARK    1  A    between atoms: C_2  and  C_5
REMARK    2  A    between atoms: N_9  and  C_10
REMARK    3  A    between atoms: C_10  and  C_11
REMARK    4  A    between atoms: C_15  and  C_16
REMARK                            x       y       z     vdW  Elec       q    Type
REMARK                         _______ _______ _______ _____ _____    ______ ____
ROOT
ATOM      1  C   UNL     1      48.509   8.342  12.479  0.00  0.00    +0.000 C 
ATOM      2  C   UNL     1      48.188   9.684  11.842  0.00  0.00    +0.000 C 
ATOM      3  C   UNL     1      49.585   9.173  11.772  0.00  0.00    +0.000 C 
ENDROOT
BRANCH   1   8
ATOM      4  C   UNL     1      44.219   5.621  12.025  0.00  0.00    +0.000 A 
ATOM      5  C   UNL     1      45.066   5.399  10.972  0.00  0.00    +0.000 A 
ATOM      6  N   UNL     1      46.310   5.911  10.897  0.00  0.00    +0.000 NA
ATOM      7  C   UNL     1      46.730   6.680  11.918  0.00  0.00    +0.000 A 
ATOM      8  N   UNL     1      48.052   7.115  11.822  0.00  0.00    +0.000 N 
ATOM      9  N   UNL     1      45.955   6.995  12.966  0.00  0.00    +0.000 NA
ATOM     10  C   UNL     1      44.721   6.449  12.999  0.00  0.00    +0.000 A 
ATOM     11  H   UNL     1      48.351   6.922  10.874  0.00  0.00    +0.000 HD
BRANCH   4  13
ATOM     12  F   UNL     1      41.866   5.829  11.730  0.00  0.00    +0.000 F 
ATOM     13  C   UNL     1      42.874   4.999  12.121  0.00  0.00    +0.000 C 
ATOM     14  F   UNL     1      42.560   4.606  13.386  0.00  0.00    +0.000 F 
ATOM     15  F   UNL     1      42.758   3.887  11.346  0.00  0.00    +0.000 F 
ENDBRANCH   4  13
ENDBRANCH   1   8
BRANCH   1  16
ATOM     16  C   UNL     1      48.749   8.227  13.981  0.00  0.00    +0.000 A 
ATOM     17  C   UNL     1      48.524   9.324  14.831  0.00  0.00    +0.000 A 
ATOM     18  C   UNL     1      48.485   9.170  16.215  0.00  0.00    +0.000 A 
ATOM     19  C   UNL     1      48.665   7.907  16.776  0.00  0.00    +0.000 A 
ATOM     20  C   UNL     1      48.950   6.791  15.973  0.00  0.00    +0.000 A 
ATOM     21  C   UNL     1      49.038   6.990  14.582  0.00  0.00    +0.000 A 
BRANCH  20  22
ATOM     22  C   UNL     1      49.016   5.435  16.544  0.00  0.00    +0.000 A 
ATOM     23  C   UNL     1      50.070   5.001  17.348  0.00  0.00    +0.000 A 
ATOM     24  C   UNL     1      50.130   3.660  17.723  0.00  0.00    +0.000 A 
ATOM     25  C   UNL     1      49.141   2.787  17.291  0.00  0.00    +0.000 A 
ATOM     26  C   UNL     1      48.118   3.297  16.514  0.00  0.00    +0.000 A 
ATOM     27  N   UNL     1      48.031   4.591  16.143  0.00  0.00    +0.000 NA
ENDBRANCH  20  22
ENDBRANCH   1  16
TORSDOF 4
ENDMDL
MODEL 6
REMARK VINA RESULT:    -6.885      4.176      7.310
REMARK INTER + INTRA:          -8.408
REMARK INTER:                  -8.090
REMARK INTRA:                  -0.317
REMARK UNBOUND:                 0.087
REMARK  Name = 
REMARK  4 active torsions:
REMARK  status: ('A' for Active; 'I' for Inactive)
REMARK    1  A    between atoms: C_2  and  C_5
REMARK    2  A    between atoms: N_9  and  C_10
REMARK    3  A    between atoms: C_10  and  C_11
REMARK    4  A    between atoms: C_15  and  C_16
REMARK                            x       y       z     vdW  Elec       q    Type
REMARK                         _______ _______ _______ _____ _____    ______ ____
ROOT
ATOM      1  C   UNL     1      44.948   6.231  12.063  0.00  0.00    +0.000 C 
ATOM      2  C   UNL     1      44.670   7.419  11.156  0.00  0.00    +0.000 C 
ATOM      3  C   UNL     1      43.627   7.005  12.135  0.00  0.00    +0.000 C 
ENDROOT
BRANCH   1   8
ATOM      4  C   UNL     1      49.651   8.044  12.845  0.00  0.00    +0.000 A 
ATOM      5  C   UNL     1      48.909   8.064  13.997  0.00  0.00    +0.000 A 
ATOM      6  N   UNL     1      47.669   7.545  14.091  0.00  0.00    +0.000 NA
ATOM      7  C   UNL     1      47.145   6.979  12.990  0.00  0.00    +0.000 A 
ATOM      8  N   UNL     1      45.894   6.389  13.171  0.00  0.00    +0.000 N 
ATOM      9  N   UNL     1      47.773   6.957  11.806  0.00  0.00    +0.000 NA
ATOM     10  C   UNL     1      49.016   7.481  11.765  0.00  0.00    +0.000 A 
ATOM     11  H   UNL     1      45.551   6.706  14.070  0.00  0.00    +0.000 HD
BRANCH   4  13
ATOM     12  F   UNL     1      51.670   8.263  11.604  0.00  0.00    +0.000 F 
ATOM     13  C   UNL     1      51.039   8.566  12.773  0.00  0.00    +0.000 C 
ATOM     14  F   UNL     1      51.840   8.083  13.762  0.00  0.00    +0.000 F 
ATOM     15  F   UNL     1      51.092   9.922  12.880  0.00  0.00    +0.000 F 
ENDBRANCH   4  13
ENDBRANCH   1   8
BRANCH   1  16
ATOM     16  C   UNL     1      44.765   4.803  11.559  0.00  0.00    +0.000 A 
ATOM     17  C   UNL     1      43.754   3.980  12.083  0.00  0.00    +0.000 A 
ATOM     18  C   UNL     1      43.404   2.781  11.466  0.00  0.00    +0.000 A 
ATOM     19  C   UNL     1      44.061   2.385  10.302  0.00  0.00    +0.000 A 
ATOM     20  C   UNL     1      45.117   3.144   9.772  0.00  0.00    +0.000 A 
ATOM     21  C   UNL     1      45.483   4.322  10.451  0.00  0.00    +0.000 A 
BRANCH  20  22
ATOM     22  C   UNL     1      45.730   2.801   8.478  0.00  0.00    +0.000 A 
ATOM     23  C   UNL     1      46.254   1.539   8.196  0.00  0.00    +0.000 A 
ATOM     24  C   UNL     1      46.950   1.343   7.005  0.00  0.00    +0.000 A 
ATOM     25  C   UNL     1      47.105   2.405   6.124  0.00  0.00    +0.000 A 
ATOM     26  C   UNL     1      46.539   3.620   6.463  0.00  0.00    +0.000 A 
ATOM     27  N   UNL     1      45.855   3.835   7.606  0.00  0.00    +0.000 NA
ENDBRANCH  20  22
ENDBRANCH   1  16
TORSDOF 4
ENDMDL
MODEL 7
REMARK VINA RESULT:    -6.876      2.697      3.554
REMARK INTER + INTRA:          -8.396
REMARK INTER:                  -7.850
REMARK INTRA:                  -0.547
REMARK UNBOUND:                 0.087
REMARK  Name = 
REMARK  4 active torsions:
REMARK  status: ('A' for Active; 'I' for Inactive)
REMARK    1  A    between atoms: C_2  and  C_5
REMARK    2  A    between atoms: N_9  and  C_10
REMARK    3  A    between atoms: C_10  and  C_11
REMARK    4  A    between atoms: C_15  and  C_16
REMARK                            x       y       z     vdW  Elec       q    Type
REMARK                         _______ _______ _______ _____ _____    ______ ____
ROOT
ATOM      1  C   UNL     1      44.153   5.545  11.682  0.00  0.00    +0.000 C 
ATOM      2  C   UNL     1      44.565   4.623  12.819  0.00  0.00    +0.000 C 
ATOM      3  C   UNL     1      43.281   5.370  12.929  0.00  0.00    +0.000 C 
ENDROOT
BRANCH   1   8
ATOM      4  C   UNL     1      46.106   3.535   7.420  0.00  0.00    +0.000 A 
ATOM      5  C   UNL     1      44.840   3.071   7.658  0.00  0.00    +0.000 A 
ATOM      6  N   UNL     1      44.058   3.521   8.660  0.00  0.00    +0.000 NA
ATOM      7  C   UNL     1      44.560   4.477   9.460  0.00  0.00    +0.000 A 
ATOM      8  N   UNL     1      43.677   4.959  10.427  0.00  0.00    +0.000 N 
ATOM      9  N   UNL     1      45.806   4.957   9.338  0.00  0.00    +0.000 NA
ATOM     10  C   UNL     1      46.546   4.482   8.314  0.00  0.00    +0.000 A 
ATOM     11  H   UNL     1      42.894   4.317  10.449  0.00  0.00    +0.000 HD
BRANCH   4  13
ATOM     12  F   UNL     1      46.931   3.941   5.225  0.00  0.00    +0.000 F 
ATOM     13  C   UNL     1      46.931   3.073   6.276  0.00  0.00    +0.000 C 
ATOM     14  F   UNL     1      46.517   1.879   5.771  0.00  0.00    +0.000 F 
ATOM     15  F   UNL     1      48.239   2.901   6.613  0.00  0.00    +0.000 F 
ENDBRANCH   4  13
ENDBRANCH   1   8
BRANCH   1  16
ATOM     16  C   UNL     1      44.736   6.951  11.566  0.00  0.00    +0.000 A 
ATOM     17  C   UNL     1      43.942   8.023  11.124  0.00  0.00    +0.000 A 
ATOM     18  C   UNL     1      44.371   9.342  11.257  0.00  0.00    +0.000 A 
ATOM     19  C   UNL     1      45.605   9.613  11.845  0.00  0.00    +0.000 A 
ATOM     20  C   UNL     1      46.458   8.574  12.249  0.00  0.00    +0.000 A 
ATOM     21  C   UNL     1      46.020   7.251  12.050  0.00  0.00    +0.000 A 
BRANCH  20  22
ATOM     22  C   UNL     1      47.705   8.851  12.983  0.00  0.00    +0.000 A 
ATOM     23  C   UNL     1      48.301  10.111  13.020  0.00  0.00    +0.000 A 
ATOM     24  C   UNL     1      49.555  10.253  13.610  0.00  0.00    +0.000 A 
ATOM     25  C   UNL     1      50.183   9.139  14.151  0.00  0.00    +0.000 A 
ATOM     26  C   UNL     1      49.520   7.928  14.096  0.00  0.00    +0.000 A 
ATOM     27  N   UNL     1      48.302   7.764  13.536  0.00  0.00    +0.000 NA
ENDBRANCH  20  22
ENDBRANCH   1  16
TORSDOF 4
ENDMDL
MODEL 8
REMARK VINA RESULT:    -6.696      4.875      7.596
REMARK INTER + INTRA:          -8.175
REMARK INTER:                  -7.488
REMARK INTRA:                  -0.687
REMARK UNBOUND:                 0.087
REMARK  Name = 
REMARK  4 active torsions:
REMARK  status: ('A' for Active; 'I' for Inactive)
REMARK    1  A    between atoms: C_2  and  C_5
REMARK    2  A    between atoms: N_9  and  C_10
REMARK    3  A    between atoms: C_10  and  C_11
REMARK    4  A    between atoms: C_15  and  C_16
REMARK                            x       y       z     vdW  Elec       q    Type
REMARK                         _______ _______ _______ _____ _____    ______ ____
ROOT
ATOM      1  C   UNL     1      48.467   7.261  13.597  0.00  0.00    +0.000 C 
ATOM      2  C   UNL     1      48.671   8.028  14.894  0.00  0.00    +0.000 C 
ATOM      3  C   UNL     1      48.547   6.545  14.950  0.00  0.00    +0.000 C 
ENDROOT
BRANCH   1   8
ATOM      4  C   UNL     1      51.337  10.179  10.553  0.00  0.00    +0.000 A 
ATOM      5  C   UNL     1      52.002   9.043  10.931  0.00  0.00    +0.000 A 
ATOM      6  N   UNL     1      51.436   8.052  11.648  0.00  0.00    +0.000 NA
ATOM      7  C   UNL     1      50.148   8.199  12.005  0.00  0.00    +0.000 A 
ATOM      8  N   UNL     1      49.595   7.108  12.675  0.00  0.00    +0.000 N 
ATOM      9  N   UNL     1      49.430   9.297  11.726  0.00  0.00    +0.000 NA
ATOM     10  C   UNL     1      50.039  10.256  10.998  0.00  0.00    +0.000 A 
ATOM     11  H   UNL     1      50.368   6.508  12.937  0.00  0.00    +0.000 HD
BRANCH   4  13
ATOM     12  F   UNL     1      52.351  12.328  10.420  0.00  0.00    +0.000 F 
ATOM     13  C   UNL     1      51.956  11.233   9.711  0.00  0.00    +0.000 C 
ATOM     14  F   UNL     1      51.120  11.699   8.744  0.00  0.00    +0.000 F 
ATOM     15  F   UNL     1      53.068  10.793   9.061  0.00  0.00    +0.000 F 
ENDBRANCH   4  13
ENDBRANCH   1   8
BRANCH   1  16
ATOM     16  C   UNL     1      47.085   7.158  12.959  0.00  0.00    +0.000 A 
ATOM     17  C   UNL     1      46.217   8.263  12.943  0.00  0.00    +0.000 A 
ATOM     18  C   UNL     1      45.072   8.272  12.149  0.00  0.00    +0.000 A 
ATOM     19  C   UNL     1      44.778   7.170  11.347  0.00  0.00    +0.000 A 
ATOM     20  C   UNL     1      45.582   6.020  11.373  0.00  0.00    +0.000 A 
ATOM     21  C   UNL     1      46.701   6.022  12.227  0.00  0.00    +0.000 A 
BRANCH  20  22
ATOM     22  C   UNL     1      45.351   4.905  10.438  0.00  0.00    +0.000 A 
ATOM     23  C   UNL     1      45.669   4.974   9.082  0.00  0.00    +0.000 A 
ATOM     24  C   UNL     1      45.280   3.933   8.240  0.00  0.00    +0.000 A 
ATOM     25  C   UNL     1      44.589   2.851   8.770  0.00  0.00    +0.000 A 
ATOM     26  C   UNL     1      44.330   2.846  10.127  0.00  0.00    +0.000 A 
ATOM     27  N   UNL     1      44.700   3.837  10.966  0.00  0.00    +0.000 NA
ENDBRANCH  20  22
ENDBRANCH   1  16
TORSDOF 4
ENDMDL
MODEL 9
REMARK VINA RESULT:    -6.653      2.771      3.593
REMARK INTER + INTRA:          -8.122
REMARK INTER:                  -8.225
REMARK INTRA:                   0.103
REMARK UNBOUND:                 0.087
REMARK  Name = 
REMARK  4 active torsions:
REMARK  status: ('A' for Active; 'I' for Inactive)
REMARK    1  A    between atoms: C_2  and  C_5
REMARK    2  A    between atoms: N_9  and  C_10
REMARK    3  A    between atoms: C_10  and  C_11
REMARK    4  A    between atoms: C_15  and  C_16
REMARK                            x       y       z     vdW  Elec       q    Type
REMARK                         _______ _______ _______ _____ _____    ______ ____
ROOT
ATOM      1  C   UNL     1      45.771   7.649  12.515  0.00  0.00    +0.000 C 
ATOM      2  C   UNL     1      45.136   8.957  12.959  0.00  0.00    +0.000 C 
ATOM      3  C   UNL     1      45.336   8.714  11.503  0.00  0.00    +0.000 C 
ENDROOT
BRANCH   1   8
ATOM      4  C   UNL     1      45.107   3.374   9.814  0.00  0.00    +0.000 A 
ATOM      5  C   UNL     1      44.792   3.186  11.134  0.00  0.00    +0.000 A 
ATOM      6  N   UNL     1      44.779   4.180  12.044  0.00  0.00    +0.000 NA
ATOM      7  C   UNL     1      45.094   5.417  11.621  0.00  0.00    +0.000 A 
ATOM      8  N   UNL     1      44.985   6.415  12.589  0.00  0.00    +0.000 N 
ATOM      9  N   UNL     1      45.465   5.689  10.361  0.00  0.00    +0.000 NA
ATOM     10  C   UNL     1      45.452   4.662   9.486  0.00  0.00    +0.000 A 
ATOM     11  H   UNL     1      44.890   5.944  13.480  0.00  0.00    +0.000 HD
BRANCH   4  13
ATOM     12  F   UNL     1      46.256   1.656   8.632  0.00  0.00    +0.000 F 
ATOM     13  C   UNL     1      45.057   2.281   8.811  0.00  0.00    +0.000 C 
ATOM     14  F   UNL     1      44.675   2.709   7.577  0.00  0.00    +0.000 F 
ATOM     15  F   UNL     1      44.178   1.300   9.153  0.00  0.00    +0.000 F 
ENDBRANCH   4  13
ENDBRANCH   1   8
BRANCH   1  16
ATOM     16  C   UNL     1      47.285   7.462  12.555  0.00  0.00    +0.000 A 
ATOM     17  C   UNL     1      48.077   7.772  11.437  0.00  0.00    +0.000 A 
ATOM     18  C   UNL     1      49.465   7.856  11.534  0.00  0.00    +0.000 A 
ATOM     19  C   UNL     1      50.086   7.638  12.762  0.00  0.00    +0.000 A 
ATOM     20  C   UNL     1      49.343   7.269  13.895  0.00  0.00    +0.000 A 
ATOM     21  C   UNL     1      47.949   7.138  13.750  0.00  0.00    +0.000 A 
BRANCH  20  22
ATOM     22  C   UNL     1      49.975   7.161  15.221  0.00  0.00    +0.000 A 
ATOM     23  C   UNL     1      50.951   8.049  15.672  0.00  0.00    +0.000 A 
ATOM     24  C   UNL     1      51.604   7.788  16.876  0.00  0.00    +0.000 A 
ATOM     25  C   UNL     1      51.268   6.651  17.600  0.00  0.00    +0.000 A 
ATOM     26  C   UNL     1      50.276   5.830  17.098  0.00  0.00    +0.000 A 
ATOM     27  N   UNL     1      49.623   6.063  15.939  0.00  0.00    +0.000 NA
ENDBRANCH  20  22
ENDBRANCH   1  16
TORSDOF 4
ENDMDL
