MODEL 1
REMARK VINA RESULT:    -8.253      0.000      0.000
REMARK INTER + INTRA:         -12.067
REMARK INTER:                 -11.148
REMARK INTRA:                  -0.919
REMARK UNBOUND:                -0.919
REMARK  Name = 
REMARK  6 active torsions:
REMARK  status: ('A' for Active; 'I' for Inactive)
REMARK    1  A    between atoms: C_2  and  C_25
REMARK    2  A    between atoms: N_3  and  C_4
REMARK    3  A    between atoms: C_4  and  C_5
REMARK    4  A    between atoms: C_8  and  C_9
REMARK    5  A    between atoms: C_9  and  N_10
REMARK    6  A    between atoms: C_11  and  C_13
REMARK                            x       y       z     vdW  Elec       q    Type
REMARK                         _______ _______ _______ _____ _____    ______ ____
ROOT
ATOM      1  C   UNL     1      45.784   5.389  12.229  0.00  0.00    +0.000 A 
ATOM      2  C   UNL     1      46.417   6.630  12.091  0.00  0.00    +0.000 A 
ATOM      3  C   UNL     1      47.305   7.092  13.070  0.00  0.00    +0.000 A 
ATOM      4  C   UNL     1      47.593   6.313  14.199  0.00  0.00    +0.000 A 
ATOM      5  C   UNL     1      46.949   5.076  14.342  0.00  0.00    +0.000 A 
ATOM      6  C   UNL     1      46.061   4.615  13.363  0.00  0.00    +0.000 A 
ENDROOT
BRANCH   1   7
ATOM      7  C   UNL     1      44.820   4.898  11.183  0.00  0.00    +0.000 C 
BRANCH   7  10
ATOM      8  O   UNL     1      44.080   2.484   9.993  0.00  0.00    +0.000 OA
ATOM      9  C   UNL     1      45.032   3.103   9.528  0.00  0.00    +0.000 C 
ATOM     10  N   UNL     1      45.483   4.296  10.052  0.00  0.00    +0.000 N 
ATOM     11  H   UNL     1      46.259   4.757   9.588  0.00  0.00    +0.000 HD
BRANCH   9  12
ATOM     12  C   UNL     1      45.771   2.595   8.327  0.00  0.00    +0.000 A 
ATOM     13  C   UNL     1      45.936   3.434   7.228  0.00  0.00    +0.000 A 
ATOM     14  C   UNL     1      46.629   2.949   6.124  0.00  0.00    +0.000 A 
ATOM     15  C   UNL     1      47.124   1.651   6.152  0.00  0.00    +0.000 A 
ATOM     16  C   UNL     1      46.911   0.884   7.289  0.00  0.00    +0.000 A 
ATOM     17  N   UNL     1      46.249   1.322   8.386  0.00  0.00    +0.000 NA
ENDBRANCH   9  12
ENDBRANCH   7  10
ENDBRANCH   1   7
BRANCH   4  18
ATOM     18  C   UNL     1      48.576   6.789  15.239  0.00  0.00    +0.000 C 
BRANCH  18  19
ATOM     19  N   UNL     1      48.307   6.243  16.545  0.00  0.00    +0.000 N 
ATOM     20  C   UNL     1      49.218   5.432  17.177  0.00  0.00    +0.000 C 
ATOM     21  O   UNL     1      50.272   5.100  16.640  0.00  0.00    +0.000 OA
ATOM     22  H   UNL     1      47.439   6.507  17.003  0.00  0.00    +0.000 HD
BRANCH  20  23
ATOM     23  C   UNL     1      48.871   4.980  18.529  0.00  0.00    +0.000 A 
ATOM     24  C   UNL     1      48.896   3.641  18.915  0.00  0.00    +0.000 A 
ATOM     25  N   UNL     1      48.528   3.539  20.233  0.00  0.00    +0.000 N 
ATOM     26  C   UNL     1      48.254   4.784  20.711  0.00  0.00    +0.000 A 
ATOM     27  N   UNL     1      47.845   5.022  21.980  0.00  0.00    +0.000 NA
ATOM     28  C   UNL     1      47.629   6.280  22.213  0.00  0.00    +0.000 A 
ATOM     29  N   UNL     1      47.799   7.296  21.296  0.00  0.00    +0.000 N 
ATOM     30  C   UNL     1      48.229   7.084  20.003  0.00  0.00    +0.000 A 
ATOM     31  O   UNL     1      48.390   8.004  19.208  0.00  0.00    +0.000 OA
ATOM     32  C   UNL     1      48.461   5.694  19.695  0.00  0.00    +0.000 A 
ATOM     33  H   UNL     1      48.461   2.688  20.774  0.00  0.00    +0.000 HD
ATOM     34  H   UNL     1      47.614   8.255  21.548  0.00  0.00    +0.000 HD
ENDBRANCH  20  23
ENDBRANCH  18  19
ENDBRANCH   4  18
TORSDOF 6
ENDMDL
MODEL 2
REMARK VINA RESULT:    -8.187      2.026      2.663
REMARK INTER + INTRA:         -11.978
REMARK INTER:                 -10.925
REMARK INTRA:                  -1.053
REMARK UNBOUND:                -0.919
REMARK  Name = 
REMARK  6 active torsions:
REMARK  status: ('A' for Active; 'I' for Inactive)
REMARK    1  A    between atoms: C_2  and  C_25
REMARK    2  A    between atoms: N_3  and  C_4
REMARK    3  A    between atoms: C_4  and  C_5
REMARK    4  A    between atoms: C_8  and  C_9
REMARK    5  A    between atoms: C_9  and  N_10
REMARK    6  A    between atoms: C_11  and  C_13
REMARK                            x       y       z     vdW  Elec       q    Type
REMARK                         _______ _______ _______ _____ _____    ______ ____
ROOT
ATOM      1  C   UNL     1      45.010   6.180  11.249  0.00  0.00    +0.000 A 
ATOM      2  C   UNL     1      44.681   7.514  11.523  0.00  0.00    +0.000 A 
ATOM      3  C   UNL     1      45.465   8.277  12.397  0.00  0.00    +0.000 A 
ATOM      4  C   UNL     1      46.605   7.729  12.999  0.00  0.00    +0.000 A 
ATOM      5  C   UNL     1      46.926   6.390  12.734  0.00  0.00    +0.000 A 
ATOM      6  C   UNL     1      46.142   5.627  11.860  0.00  0.00    +0.000 A 
ENDROOT
BRANCH   1   7
ATOM      7  C   UNL     1      44.161   5.356  10.319  0.00  0.00    +0.000 C 
BRANCH   7  10
ATOM      8  O   UNL     1      44.436   2.584  10.138  0.00  0.00    +0.000 OA
ATOM      9  C   UNL     1      45.000   3.288   9.306  0.00  0.00    +0.000 C 
ATOM     10  N   UNL     1      44.937   4.666   9.318  0.00  0.00    +0.000 N 
ATOM     11  H   UNL     1      45.410   5.171   8.575  0.00  0.00    +0.000 HD
BRANCH   9  12
ATOM     12  C   UNL     1      45.800   2.680   8.195  0.00  0.00    +0.000 A 
ATOM     13  C   UNL     1      46.082   3.445   7.065  0.00  0.00    +0.000 A 
ATOM     14  C   UNL     1      46.829   2.866   6.045  0.00  0.00    +0.000 A 
ATOM     15  C   UNL     1      47.263   1.552   6.183  0.00  0.00    +0.000 A 
ATOM     16  C   UNL     1      46.933   0.865   7.343  0.00  0.00    +0.000 A 
ATOM     17  N   UNL     1      46.214   1.394   8.362  0.00  0.00    +0.000 NA
ENDBRANCH   9  12
ENDBRANCH   7  10
ENDBRANCH   1   7
BRANCH   4  18
ATOM     18  C   UNL     1      47.474   8.557  13.912  0.00  0.00    +0.000 C 
BRANCH  18  19
ATOM     19  N   UNL     1      47.896   7.831  15.083  0.00  0.00    +0.000 N 
ATOM     20  C   UNL     1      49.202   7.431  15.237  0.00  0.00    +0.000 C 
ATOM     21  O   UNL     1      50.048   7.631  14.369  0.00  0.00    +0.000 OA
ATOM     22  H   UNL     1      47.209   7.656  15.811  0.00  0.00    +0.000 HD
BRANCH  20  23
ATOM     23  C   UNL     1      49.538   6.751  16.493  0.00  0.00    +0.000 A 
ATOM     24  C   UNL     1      50.513   7.216  17.374  0.00  0.00    +0.000 A 
ATOM     25  N   UNL     1      50.591   6.372  18.454  0.00  0.00    +0.000 N 
ATOM     26  C   UNL     1      49.694   5.362  18.289  0.00  0.00    +0.000 A 
ATOM     27  N   UNL     1      49.538   4.352  19.178  0.00  0.00    +0.000 NA
ATOM     28  C   UNL     1      48.636   3.494  18.813  0.00  0.00    +0.000 A 
ATOM     29  N   UNL     1      47.889   3.573  17.656  0.00  0.00    +0.000 N 
ATOM     30  C   UNL     1      48.016   4.599  16.742  0.00  0.00    +0.000 A 
ATOM     31  O   UNL     1      47.329   4.660  15.728  0.00  0.00    +0.000 OA
ATOM     32  C   UNL     1      49.025   5.566  17.101  0.00  0.00    +0.000 A 
ATOM     33  H   UNL     1      51.212   6.468  19.246  0.00  0.00    +0.000 HD
ATOM     34  H   UNL     1      47.201   2.869  17.436  0.00  0.00    +0.000 HD
ENDBRANCH  20  23
ENDBRANCH  18  19
ENDBRANCH   4  18
TORSDOF 6
ENDMDL
MODEL 3
REMARK VINA RESULT:    -7.747      1.717     10.579
REMARK INTER + INTRA:         -11.384
REMARK INTER:                 -10.396
REMARK INTRA:                  -0.988
REMARK UNBOUND:                -0.919
REMARK  Name = 
REMARK  6 active torsions:
REMARK  status: ('A' for Active; 'I' for Inactive)
REMARK    1  A    between atoms: C_2  and  C_25
REMARK    2  A    between atoms: N_3  and  C_4
REMARK    3  A    between atoms: C_4  and  C_5
REMARK    4  A    between atoms: C_8  and  C_9
REMARK    5  A    between atoms: C_9  and  N_10
REMARK    6  A    between atoms: C_11  and  C_13
REMARK                            x       y       z     vdW  Elec       q    Type
REMARK                         _______ _______ _______ _____ _____    ______ ____
ROOT
ATOM      1  C   UNL     1      47.915   7.741  14.089  0.00  0.00    +0.000 A 
ATOM      2  C   UNL     1      46.905   8.610  13.655  0.00  0.00    +0.000 A 
ATOM      3  C   UNL     1      46.010   8.220  12.651  0.00  0.00    +0.000 A 
ATOM      4  C   UNL     1      46.094   6.946  12.074  0.00  0.00    +0.000 A 
ATOM      5  C   UNL     1      47.112   6.082  12.500  0.00  0.00    +0.000 A 
ATOM      6  C   UNL     1      48.006   6.472  13.503  0.00  0.00    +0.000 A 
ENDROOT
BRANCH   1   7
ATOM      7  C   UNL     1      48.884   8.164  15.159  0.00  0.00    +0.000 C 
BRANCH   7  10
ATOM      8  O   UNL     1      50.066   5.947  16.375  0.00  0.00    +0.000 OA
ATOM      9  C   UNL     1      49.190   6.554  16.981  0.00  0.00    +0.000 C 
ATOM     10  N   UNL     1      48.536   7.652  16.462  0.00  0.00    +0.000 N 
ATOM     11  H   UNL     1      47.844   8.113  17.043  0.00  0.00    +0.000 HD
BRANCH   9  12
ATOM     12  C   UNL     1      48.775   6.139  18.360  0.00  0.00    +0.000 A 
ATOM     13  C   UNL     1      49.300   4.969  18.903  0.00  0.00    +0.000 A 
ATOM     14  C   UNL     1      48.908   4.601  20.185  0.00  0.00    +0.000 A 
ATOM     15  C   UNL     1      48.008   5.404  20.876  0.00  0.00    +0.000 A 
ATOM     16  C   UNL     1      47.535   6.553  20.257  0.00  0.00    +0.000 A 
ATOM     17  N   UNL     1      47.897   6.949  19.014  0.00  0.00    +0.000 NA
ENDBRANCH   9  12
ENDBRANCH   7  10
ENDBRANCH   1   7
BRANCH   4  18
ATOM     18  C   UNL     1      45.109   6.508  11.019  0.00  0.00    +0.000 C 
BRANCH  18  19
ATOM     19  N   UNL     1      45.480   5.259  10.403  0.00  0.00    +0.000 N 
ATOM     20  C   UNL     1      44.527   4.399   9.912  0.00  0.00    +0.000 C 
ATOM     21  O   UNL     1      43.325   4.632  10.021  0.00  0.00    +0.000 OA
ATOM     22  H   UNL     1      46.470   5.049  10.305  0.00  0.00    +0.000 HD
BRANCH  20  23
ATOM     23  C   UNL     1      45.015   3.184   9.250  0.00  0.00    +0.000 A 
ATOM     24  C   UNL     1      44.517   1.912   9.528  0.00  0.00    +0.000 A 
ATOM     25  N   UNL     1      45.166   0.987   8.749  0.00  0.00    +0.000 N 
ATOM     26  C   UNL     1      46.084   1.630   7.976  0.00  0.00    +0.000 A 
ATOM     27  N   UNL     1      46.903   0.993   7.106  0.00  0.00    +0.000 NA
ATOM     28  C   UNL     1      47.706   1.800   6.485  0.00  0.00    +0.000 A 
ATOM     29  N   UNL     1      47.743   3.169   6.657  0.00  0.00    +0.000 N 
ATOM     30  C   UNL     1      46.910   3.845   7.523  0.00  0.00    +0.000 A 
ATOM     31  O   UNL     1      46.947   5.064   7.649  0.00  0.00    +0.000 OA
ATOM     32  C   UNL     1      46.014   2.980   8.251  0.00  0.00    +0.000 A 
ATOM     33  H   UNL     1      45.006  -0.010   8.743  0.00  0.00    +0.000 HD
ATOM     34  H   UNL     1      48.394   3.737   6.136  0.00  0.00    +0.000 HD
ENDBRANCH  20  23
ENDBRANCH  18  19
ENDBRANCH   4  18
TORSDOF 6
ENDMDL
MODEL 4
REMARK VINA RESULT:    -7.739      4.869      6.957
REMARK INTER + INTRA:         -11.373
REMARK INTER:                 -10.430
REMARK INTRA:                  -0.943
REMARK UNBOUND:                -0.919
REMARK  Name = 
REMARK  6 active torsions:
REMARK  status: ('A' for Active; 'I' for Inactive)
REMARK    1  A    between atoms: C_2  and  C_25
REMARK    2  A    between atoms: N_3  and  C_4
REMARK    3  A    between atoms: C_4  and  C_5
REMARK    4  A    between atoms: C_8  and  C_9
REMARK    5  A    between atoms: C_9  and  N_10
REMARK    6  A    between atoms: C_11  and  C_13
REMARK                            x       y       z     vdW  Elec       q    Type
REMARK                         _______ _______ _______ _____ _____    ______ ____
ROOT
ATOM      1  C   UNL     1      45.039   9.220  11.823  0.00  0.00    +0.000 A 
ATOM      2  C   UNL     1      46.122   9.091  12.702  0.00  0.00    +0.000 A 
ATOM      3  C   UNL     1      46.569   7.826  13.103  0.00  0.00    +0.000 A 
ATOM      4  C   UNL     1      45.956   6.664  12.616  0.00  0.00    +0.000 A 
ATOM      5  C   UNL     1      44.865   6.795  11.745  0.00  0.00    +0.000 A 
ATOM      6  C   UNL     1      44.418   8.059  11.345  0.00  0.00    +0.000 A 
ENDROOT
BRANCH   1   7
ATOM      7  C   UNL     1      44.551  10.580  11.401  0.00  0.00    +0.000 C 
BRANCH   7  10
ATOM      8  O   UNL     1      42.081  10.533  10.102  0.00  0.00    +0.000 OA
ATOM      9  C   UNL     1      42.120  10.866  11.282  0.00  0.00    +0.000 C 
ATOM     10  N   UNL     1      43.291  10.934  12.007  0.00  0.00    +0.000 N 
ATOM     11  H   UNL     1      43.230  11.190  12.988  0.00  0.00    +0.000 HD
BRANCH   9  12
ATOM     12  C   UNL     1      40.868  11.213  12.028  0.00  0.00    +0.000 A 
ATOM     13  C   UNL     1      39.649  10.711  11.580  0.00  0.00    +0.000 A 
ATOM     14  C   UNL     1      38.498  11.040  12.287  0.00  0.00    +0.000 A 
ATOM     15  C   UNL     1      38.600  11.857  13.406  0.00  0.00    +0.000 A 
ATOM     16  C   UNL     1      39.856  12.315  13.780  0.00  0.00    +0.000 A 
ATOM     17  N   UNL     1      41.001  12.011  13.123  0.00  0.00    +0.000 NA
ENDBRANCH   9  12
ENDBRANCH   7  10
ENDBRANCH   1   7
BRANCH   4  18
ATOM     18  C   UNL     1      46.457   5.298  13.014  0.00  0.00    +0.000 C 
BRANCH  18  19
ATOM     19  N   UNL     1      46.850   5.236  14.399  0.00  0.00    +0.000 N 
ATOM     20  C   UNL     1      47.293   4.063  14.959  0.00  0.00    +0.000 C 
ATOM     21  O   UNL     1      47.327   3.012  14.323  0.00  0.00    +0.000 OA
ATOM     22  H   UNL     1      46.828   6.096  14.941  0.00  0.00    +0.000 HD
BRANCH  20  23
ATOM     23  C   UNL     1      47.726   4.124  16.360  0.00  0.00    +0.000 A 
ATOM     24  C   UNL     1      47.225   3.280  17.350  0.00  0.00    +0.000 A 
ATOM     25  N   UNL     1      47.825   3.577  18.549  0.00  0.00    +0.000 N 
ATOM     26  C   UNL     1      48.700   4.603  18.361  0.00  0.00    +0.000 A 
ATOM     27  N   UNL     1      49.440   5.143  19.358  0.00  0.00    +0.000 NA
ATOM     28  C   UNL     1      50.194   6.118  18.955  0.00  0.00    +0.000 A 
ATOM     29  N   UNL     1      50.271   6.577  17.656  0.00  0.00    +0.000 N 
ATOM     30  C   UNL     1      49.541   6.035  16.619  0.00  0.00    +0.000 A 
ATOM     31  O   UNL     1      49.636   6.446  15.468  0.00  0.00    +0.000 OA
ATOM     32  C   UNL     1      48.671   4.959  17.029  0.00  0.00    +0.000 A 
ATOM     33  H   UNL     1      47.653   3.122  19.435  0.00  0.00    +0.000 HD
ATOM     34  H   UNL     1      50.883   7.340  17.414  0.00  0.00    +0.000 HD
ENDBRANCH  20  23
ENDBRANCH  18  19
ENDBRANCH   4  18
TORSDOF 6
ENDMDL
MODEL 5
REMARK VINA RESULT:    -7.668      1.735      2.761
REMARK INTER + INTRA:         -11.277
REMARK INTER:                 -10.507
REMARK INTRA:                  -0.770
REMARK UNBOUND:                -0.919
REMARK  Name = 
REMARK  6 active torsions:
REMARK  status: ('A' for Active; 'I' for Inactive)
REMARK    1  A    between atoms: C_2  and  C_25
REMARK    2  A    between atoms: N_3  and  C_4
REMARK    3  A    between atoms: C_4  and  C_5
REMARK    4  A    between atoms: C_8  and  C_9
REMARK    5  A    between atoms: C_9  and  N_10
REMARK    6  A    between atoms: C_11  and  C_13
REMARK                            x       y       z     vdW  Elec       q    Type
REMARK                         _______ _______ _______ _____ _____    ______ ____
ROOT
ATOM      1  C   UNL     1      45.406   6.794  11.645  0.00  0.00    +0.000 A 
ATOM      2  C   UNL     1      46.695   6.358  11.977  0.00  0.00    +0.000 A 
ATOM      3  C   UNL     1      47.527   7.139  12.788  0.00  0.00    +0.000 A 
ATOM      4  C   UNL     1      47.079   8.364  13.301  0.00  0.00    +0.000 A 
ATOM      5  C   UNL     1      45.794   8.805  12.959  0.00  0.00    +0.000 A 
ATOM      6  C   UNL     1      44.963   8.024  12.147  0.00  0.00    +0.000 A 
ENDROOT
BRANCH   1   7
ATOM      7  C   UNL     1      44.516   5.960  10.763  0.00  0.00    +0.000 C 
BRANCH   7  10
ATOM      8  O   UNL     1      43.827   3.382   9.945  0.00  0.00    +0.000 OA
ATOM      9  C   UNL     1      44.825   3.906   9.463  0.00  0.00    +0.000 C 
ATOM     10  N   UNL     1      45.256   5.169   9.811  0.00  0.00    +0.000 N 
ATOM     11  H   UNL     1      46.077   5.539   9.341  0.00  0.00    +0.000 HD
BRANCH   9  12
ATOM     12  C   UNL     1      45.648   3.196   8.432  0.00  0.00    +0.000 A 
ATOM     13  C   UNL     1      45.911   1.837   8.592  0.00  0.00    +0.000 A 
ATOM     14  C   UNL     1      46.673   1.193   7.624  0.00  0.00    +0.000 A 
ATOM     15  C   UNL     1      47.148   1.921   6.539  0.00  0.00    +0.000 A 
ATOM     16  C   UNL     1      46.839   3.272   6.461  0.00  0.00    +0.000 A 
ATOM     17  N   UNL     1      46.094   3.934   7.379  0.00  0.00    +0.000 NA
ENDBRANCH   9  12
ENDBRANCH   7  10
ENDBRANCH   1   7
BRANCH   4  18
ATOM     18  C   UNL     1      47.957   9.192  14.206  0.00  0.00    +0.000 C 
BRANCH  18  19
ATOM     19  N   UNL     1      47.642   9.008  15.600  0.00  0.00    +0.000 N 
ATOM     20  C   UNL     1      48.591   8.562  16.489  0.00  0.00    +0.000 C 
ATOM     21  O   UNL     1      49.725   8.257  16.128  0.00  0.00    +0.000 OA
ATOM     22  H   UNL     1      46.708   9.255  15.916  0.00  0.00    +0.000 HD
BRANCH  20  23
ATOM     23  C   UNL     1      48.182   8.468  17.895  0.00  0.00    +0.000 A 
ATOM     24  C   UNL     1      47.914   9.582  18.687  0.00  0.00    +0.000 A 
ATOM     25  N   UNL     1      47.553   9.172  19.947  0.00  0.00    +0.000 N 
ATOM     26  C   UNL     1      47.591   7.812  19.993  0.00  0.00    +0.000 A 
ATOM     27  N   UNL     1      47.303   7.096  21.106  0.00  0.00    +0.000 NA
ATOM     28  C   UNL     1      47.416   5.816  20.926  0.00  0.00    +0.000 A 
ATOM     29  N   UNL     1      47.776   5.212  19.740  0.00  0.00    +0.000 N 
ATOM     30  C   UNL     1      48.059   5.915  18.588  0.00  0.00    +0.000 A 
ATOM     31  O   UNL     1      48.360   5.357  17.538  0.00  0.00    +0.000 OA
ATOM     32  C   UNL     1      47.966   7.346  18.750  0.00  0.00    +0.000 A 
ATOM     33  H   UNL     1      47.304   9.767  20.724  0.00  0.00    +0.000 HD
ATOM     34  H   UNL     1      47.842   4.208  19.671  0.00  0.00    +0.000 HD
ENDBRANCH  20  23
ENDBRANCH  18  19
ENDBRANCH   4  18
TORSDOF 6
ENDMDL
MODEL 6
REMARK VINA RESULT:    -7.234      2.948     11.003
REMARK INTER + INTRA:         -10.691
REMARK INTER:                  -9.704
REMARK INTRA:                  -0.987
REMARK UNBOUND:                -0.919
REMARK  Name = 
REMARK  6 active torsions:
REMARK  status: ('A' for Active; 'I' for Inactive)
REMARK    1  A    between atoms: C_2  and  C_25
REMARK    2  A    between atoms: N_3  and  C_4
REMARK    3  A    between atoms: C_4  and  C_5
REMARK    4  A    between atoms: C_8  and  C_9
REMARK    5  A    between atoms: C_9  and  N_10
REMARK    6  A    between atoms: C_11  and  C_13
REMARK                            x       y       z     vdW  Elec       q    Type
REMARK                         _______ _______ _______ _____ _____    ______ ____
ROOT
ATOM      1  C   UNL     1      48.125   7.822  13.961  0.00  0.00    +0.000 A 
ATOM      2  C   UNL     1      47.359   8.753  13.247  0.00  0.00    +0.000 A 
ATOM      3  C   UNL     1      46.420   8.329  12.299  0.00  0.00    +0.000 A 
ATOM      4  C   UNL     1      46.213   6.964  12.060  0.00  0.00    +0.000 A 
ATOM      5  C   UNL     1      46.988   6.034  12.766  0.00  0.00    +0.000 A 
ATOM      6  C   UNL     1      47.926   6.458  13.713  0.00  0.00    +0.000 A 
ENDROOT
BRANCH   1   7
ATOM      7  C   UNL     1      49.142   8.278  14.971  0.00  0.00    +0.000 C 
BRANCH   7  10
ATOM      8  O   UNL     1      48.577   7.254  17.505  0.00  0.00    +0.000 OA
ATOM      9  C   UNL     1      48.327   8.433  17.277  0.00  0.00    +0.000 C 
ATOM     10  N   UNL     1      48.557   9.029  16.055  0.00  0.00    +0.000 N 
ATOM     11  H   UNL     1      48.348  10.017  15.960  0.00  0.00    +0.000 HD
BRANCH   9  12
ATOM     12  C   UNL     1      47.756   9.321  18.340  0.00  0.00    +0.000 A 
ATOM     13  C   UNL     1      47.386   8.765  19.562  0.00  0.00    +0.000 A 
ATOM     14  C   UNL     1      46.862   9.604  20.539  0.00  0.00    +0.000 A 
ATOM     15  C   UNL     1      46.722  10.960  20.264  0.00  0.00    +0.000 A 
ATOM     16  C   UNL     1      47.115  11.427  19.018  0.00  0.00    +0.000 A 
ATOM     17  N   UNL     1      47.636  10.644  18.043  0.00  0.00    +0.000 NA
ENDBRANCH   9  12
ENDBRANCH   7  10
ENDBRANCH   1   7
BRANCH   4  18
ATOM     18  C   UNL     1      45.176   6.501  11.067  0.00  0.00    +0.000 C 
BRANCH  18  19
ATOM     19  N   UNL     1      45.525   5.246  10.449  0.00  0.00    +0.000 N 
ATOM     20  C   UNL     1      44.562   4.430   9.908  0.00  0.00    +0.000 C 
ATOM     21  O   UNL     1      43.367   4.707   9.970  0.00  0.00    +0.000 OA
ATOM     22  H   UNL     1      46.510   5.000  10.389  0.00  0.00    +0.000 HD
BRANCH  20  23
ATOM     23  C   UNL     1      45.031   3.205   9.250  0.00  0.00    +0.000 A 
ATOM     24  C   UNL     1      44.516   1.941   9.535  0.00  0.00    +0.000 A 
ATOM     25  N   UNL     1      45.151   1.004   8.758  0.00  0.00    +0.000 N 
ATOM     26  C   UNL     1      46.075   1.630   7.979  0.00  0.00    +0.000 A 
ATOM     27  N   UNL     1      46.882   0.978   7.110  0.00  0.00    +0.000 NA
ATOM     28  C   UNL     1      47.695   1.771   6.483  0.00  0.00    +0.000 A 
ATOM     29  N   UNL     1      47.751   3.140   6.649  0.00  0.00    +0.000 N 
ATOM     30  C   UNL     1      46.930   3.832   7.515  0.00  0.00    +0.000 A 
ATOM     31  O   UNL     1      46.985   5.051   7.635  0.00  0.00    +0.000 OA
ATOM     32  C   UNL     1      46.024   2.982   8.249  0.00  0.00    +0.000 A 
ATOM     33  H   UNL     1      44.976   0.008   8.757  0.00  0.00    +0.000 HD
ATOM     34  H   UNL     1      48.408   3.696   6.124  0.00  0.00    +0.000 HD
ENDBRANCH  20  23
ENDBRANCH  18  19
ENDBRANCH   4  18
TORSDOF 6
ENDMDL
MODEL 7
REMARK VINA RESULT:    -7.058      1.917      2.943
REMARK INTER + INTRA:         -10.452
REMARK INTER:                  -9.479
REMARK INTRA:                  -0.973
REMARK UNBOUND:                -0.919
REMARK  Name = 
REMARK  6 active torsions:
REMARK  status: ('A' for Active; 'I' for Inactive)
REMARK    1  A    between atoms: C_2  and  C_25
REMARK    2  A    between atoms: N_3  and  C_4
REMARK    3  A    between atoms: C_4  and  C_5
REMARK    4  A    between atoms: C_8  and  C_9
REMARK    5  A    between atoms: C_9  and  N_10
REMARK    6  A    between atoms: C_11  and  C_13
REMARK                            x       y       z     vdW  Elec       q    Type
REMARK                         _______ _______ _______ _____ _____    ______ ____
ROOT
ATOM      1  C   UNL     1      45.573   6.723  11.929  0.00  0.00    +0.000 A 
ATOM      2  C   UNL     1      45.446   8.068  12.299  0.00  0.00    +0.000 A 
ATOM      3  C   UNL     1      46.320   8.638  13.232  0.00  0.00    +0.000 A 
ATOM      4  C   UNL     1      47.352   7.881  13.801  0.00  0.00    +0.000 A 
ATOM      5  C   UNL     1      47.471   6.531  13.440  0.00  0.00    +0.000 A 
ATOM      6  C   UNL     1      46.598   5.962  12.507  0.00  0.00    +0.000 A 
ENDROOT
BRANCH   1   7
ATOM      7  C   UNL     1      44.627   6.107  10.935  0.00  0.00    +0.000 C 
BRANCH   7  10
ATOM      8  O   UNL     1      43.927   3.471  10.341  0.00  0.00    +0.000 OA
ATOM      9  C   UNL     1      44.866   3.981   9.739  0.00  0.00    +0.000 C 
ATOM     10  N   UNL     1      45.297   5.270   9.970  0.00  0.00    +0.000 N 
ATOM     11  H   UNL     1      46.064   5.624   9.406  0.00  0.00    +0.000 HD
BRANCH   9  12
ATOM     12  C   UNL     1      45.610   3.222   8.684  0.00  0.00    +0.000 A 
ATOM     13  C   UNL     1      46.182   3.919   7.622  0.00  0.00    +0.000 A 
ATOM     14  C   UNL     1      46.873   3.200   6.654  0.00  0.00    +0.000 A 
ATOM     15  C   UNL     1      46.966   1.818   6.773  0.00  0.00    +0.000 A 
ATOM     16  C   UNL     1      46.364   1.205   7.864  0.00  0.00    +0.000 A 
ATOM     17  N   UNL     1      45.688   1.871   8.831  0.00  0.00    +0.000 NA
ENDBRANCH   9  12
ENDBRANCH   7  10
ENDBRANCH   1   7
BRANCH   4  18
ATOM     18  C   UNL     1      48.319   8.500  14.779  0.00  0.00    +0.000 C 
BRANCH  18  19
ATOM     19  N   UNL     1      48.966   7.518  15.613  0.00  0.00    +0.000 N 
ATOM     20  C   UNL     1      48.809   7.533  16.978  0.00  0.00    +0.000 C 
ATOM     21  O   UNL     1      48.157   8.406  17.546  0.00  0.00    +0.000 OA
ATOM     22  H   UNL     1      49.510   6.789  15.160  0.00  0.00    +0.000 HD
BRANCH  20  23
ATOM     23  C   UNL     1      49.461   6.453  17.727  0.00  0.00    +0.000 A 
ATOM     24  C   UNL     1      48.837   5.761  18.764  0.00  0.00    +0.000 A 
ATOM     25  N   UNL     1      49.696   4.813  19.261  0.00  0.00    +0.000 N 
ATOM     26  C   UNL     1      50.870   4.879  18.575  0.00  0.00    +0.000 A 
ATOM     27  N   UNL     1      51.933   4.083  18.838  0.00  0.00    +0.000 NA
ATOM     28  C   UNL     1      52.950   4.329  18.070  0.00  0.00    +0.000 A 
ATOM     29  N   UNL     1      52.979   5.284  17.075  0.00  0.00    +0.000 N 
ATOM     30  C   UNL     1      51.906   6.097  16.775  0.00  0.00    +0.000 A 
ATOM     31  O   UNL     1      51.946   6.928  15.875  0.00  0.00    +0.000 OA
ATOM     32  C   UNL     1      50.759   5.870  17.621  0.00  0.00    +0.000 A 
ATOM     33  H   UNL     1      49.507   4.167  20.015  0.00  0.00    +0.000 HD
ATOM     34  H   UNL     1      53.805   5.419  16.513  0.00  0.00    +0.000 HD
ENDBRANCH  20  23
ENDBRANCH  18  19
ENDBRANCH   4  18
TORSDOF 6
ENDMDL
MODEL 8
REMARK VINA RESULT:    -7.007      1.725      2.193
REMARK INTER + INTRA:         -10.385
REMARK INTER:                  -9.679
REMARK INTRA:                  -0.705
REMARK UNBOUND:                -0.919
REMARK  Name = 
REMARK  6 active torsions:
REMARK  status: ('A' for Active; 'I' for Inactive)
REMARK    1  A    between atoms: C_2  and  C_25
REMARK    2  A    between atoms: N_3  and  C_4
REMARK    3  A    between atoms: C_4  and  C_5
REMARK    4  A    between atoms: C_8  and  C_9
REMARK    5  A    between atoms: C_9  and  N_10
REMARK    6  A    between atoms: C_11  and  C_13
REMARK                            x       y       z     vdW  Elec       q    Type
REMARK                         _______ _______ _______ _____ _____    ______ ____
ROOT
ATOM      1  C   UNL     1      45.864   6.963  12.023  0.00  0.00    +0.000 A 
ATOM      2  C   UNL     1      45.930   8.297  12.442  0.00  0.00    +0.000 A 
ATOM      3  C   UNL     1      46.799   8.682  13.470  0.00  0.00    +0.000 A 
ATOM      4  C   UNL     1      47.636   7.742  14.087  0.00  0.00    +0.000 A 
ATOM      5  C   UNL     1      47.561   6.404  13.675  0.00  0.00    +0.000 A 
ATOM      6  C   UNL     1      46.691   6.020  12.648  0.00  0.00    +0.000 A 
ENDROOT
BRANCH   1   7
ATOM      7  C   UNL     1      44.921   6.547  10.926  0.00  0.00    +0.000 C 
BRANCH   7  10
ATOM      8  O   UNL     1      43.801   4.110  10.153  0.00  0.00    +0.000 OA
ATOM      9  C   UNL     1      44.877   4.444   9.669  0.00  0.00    +0.000 C 
ATOM     10  N   UNL     1      45.518   5.620   9.997  0.00  0.00    +0.000 N 
ATOM     11  H   UNL     1      46.393   5.833   9.527  0.00  0.00    +0.000 HD
BRANCH   9  12
ATOM     12  C   UNL     1      45.571   3.581   8.660  0.00  0.00    +0.000 A 
ATOM     13  C   UNL     1      45.629   2.205   8.869  0.00  0.00    +0.000 A 
ATOM     14  C   UNL     1      46.273   1.418   7.921  0.00  0.00    +0.000 A 
ATOM     15  C   UNL     1      46.838   2.027   6.806  0.00  0.00    +0.000 A 
ATOM     16  C   UNL     1      46.734   3.405   6.680  0.00  0.00    +0.000 A 
ATOM     17  N   UNL     1      46.110   4.205   7.577  0.00  0.00    +0.000 NA
ENDBRANCH   9  12
ENDBRANCH   7  10
ENDBRANCH   1   7
BRANCH   4  18
ATOM     18  C   UNL     1      48.602   8.157  15.169  0.00  0.00    +0.000 C 
BRANCH  18  19
ATOM     19  N   UNL     1      48.543   7.295  16.322  0.00  0.00    +0.000 N 
ATOM     20  C   UNL     1      48.561   7.811  17.595  0.00  0.00    +0.000 C 
ATOM     21  O   UNL     1      48.676   9.016  17.805  0.00  0.00    +0.000 OA
ATOM     22  H   UNL     1      48.447   6.295  16.167  0.00  0.00    +0.000 HD
BRANCH  20  23
ATOM     23  C   UNL     1      48.435   6.850  18.697  0.00  0.00    +0.000 A 
ATOM     24  C   UNL     1      47.241   6.202  19.011  0.00  0.00    +0.000 A 
ATOM     25  N   UNL     1      47.443   5.366  20.081  0.00  0.00    +0.000 N 
ATOM     26  C   UNL     1      48.742   5.464  20.476  0.00  0.00    +0.000 A 
ATOM     27  N   UNL     1      49.256   4.774  21.522  0.00  0.00    +0.000 NA
ATOM     28  C   UNL     1      50.511   5.031  21.728  0.00  0.00    +0.000 A 
ATOM     29  N   UNL     1      51.276   5.898  20.975  0.00  0.00    +0.000 N 
ATOM     30  C   UNL     1      50.782   6.600  19.895  0.00  0.00    +0.000 A 
ATOM     31  O   UNL     1      51.484   7.353  19.229  0.00  0.00    +0.000 OA
ATOM     32  C   UNL     1      49.382   6.359  19.645  0.00  0.00    +0.000 A 
ATOM     33  H   UNL     1      46.751   4.774  20.519  0.00  0.00    +0.000 HD
ATOM     34  H   UNL     1      52.249   6.048  21.191  0.00  0.00    +0.000 HD
ENDBRANCH  20  23
ENDBRANCH  18  19
ENDBRANCH   4  18
TORSDOF 6
ENDMDL
MODEL 9
REMARK VINA RESULT:    -6.890      4.672      6.956
REMARK INTER + INTRA:         -10.227
REMARK INTER:                  -9.381
REMARK INTRA:                  -0.845
REMARK UNBOUND:                -0.919
REMARK  Name = 
REMARK  6 active torsions:
REMARK  status: ('A' for Active; 'I' for Inactive)
REMARK    1  A    between atoms: C_2  and  C_25
REMARK    2  A    between atoms: N_3  and  C_4
REMARK    3  A    between atoms: C_4  and  C_5
REMARK    4  A    between atoms: C_8  and  C_9
REMARK    5  A    between atoms: C_9  and  N_10
REMARK    6  A    between atoms: C_11  and  C_13
REMARK                            x       y       z     vdW  Elec       q    Type
REMARK                         _______ _______ _______ _____ _____    ______ ____
ROOT
ATOM      1  C   UNL     1      45.127   6.026  11.622  0.00  0.00    +0.000 A 
ATOM      2  C   UNL     1      44.898   7.406  11.561  0.00  0.00    +0.000 A 
ATOM      3  C   UNL     1      45.643   8.290  12.352  0.00  0.00    +0.000 A 
ATOM      4  C   UNL     1      46.646   7.812  13.206  0.00  0.00    +0.000 A 
ATOM      5  C   UNL     1      46.867   6.429  13.275  0.00  0.00    +0.000 A 
ATOM      6  C   UNL     1      46.122   5.547  12.484  0.00  0.00    +0.000 A 
ENDROOT
BRANCH   1   7
ATOM      7  C   UNL     1      44.319   5.076  10.780  0.00  0.00    +0.000 C 
BRANCH   7  10
ATOM      8  O   UNL     1      44.042   2.429   9.937  0.00  0.00    +0.000 OA
ATOM      9  C   UNL     1      44.874   3.140   9.383  0.00  0.00    +0.000 C 
ATOM     10  N   UNL     1      45.096   4.455   9.736  0.00  0.00    +0.000 N 
ATOM     11  H   UNL     1      45.784   4.981   9.206  0.00  0.00    +0.000 HD
BRANCH   9  12
ATOM     12  C   UNL     1      45.709   2.616   8.255  0.00  0.00    +0.000 A 
ATOM     13  C   UNL     1      45.985   3.447   7.172  0.00  0.00    +0.000 A 
ATOM     14  C   UNL     1      46.765   2.946   6.136  0.00  0.00    +0.000 A 
ATOM     15  C   UNL     1      47.238   1.640   6.214  0.00  0.00    +0.000 A 
ATOM     16  C   UNL     1      46.913   0.883   7.331  0.00  0.00    +0.000 A 
ATOM     17  N   UNL     1      46.162   1.336   8.363  0.00  0.00    +0.000 NA
ENDBRANCH   9  12
ENDBRANCH   7  10
ENDBRANCH   1   7
BRANCH   4  18
ATOM     18  C   UNL     1      47.477   8.762  14.032  0.00  0.00    +0.000 C 
BRANCH  18  19
ATOM     19  N   UNL     1      48.406   9.521  13.234  0.00  0.00    +0.000 N 
ATOM     20  C   UNL     1      49.716   9.130  13.106  0.00  0.00    +0.000 C 
ATOM     21  O   UNL     1      50.162   8.151  13.699  0.00  0.00    +0.000 OA
ATOM     22  H   UNL     1      48.054  10.335  12.736  0.00  0.00    +0.000 HD
BRANCH  20  23
ATOM     23  C   UNL     1      50.562   9.940  12.221  0.00  0.00    +0.000 A 
ATOM     24  C   UNL     1      50.678  11.324  12.336  0.00  0.00    +0.000 A 
ATOM     25  N   UNL     1      51.540  11.791  11.375  0.00  0.00    +0.000 N 
ATOM     26  C   UNL     1      51.981  10.740  10.631  0.00  0.00    +0.000 A 
ATOM     27  N   UNL     1      52.835  10.871   9.588  0.00  0.00    +0.000 NA
ATOM     28  C   UNL     1      53.109   9.740   9.016  0.00  0.00    +0.000 A 
ATOM     29  N   UNL     1      52.613   8.513   9.406  0.00  0.00    +0.000 N 
ATOM     30  C   UNL     1      51.755   8.349  10.473  0.00  0.00    +0.000 A 
ATOM     31  O   UNL     1      51.339   7.247  10.814  0.00  0.00    +0.000 OA
ATOM     32  C   UNL     1      51.407   9.588  11.126  0.00  0.00    +0.000 A 
ATOM     33  H   UNL     1      51.810  12.754  11.227  0.00  0.00    +0.000 HD
ATOM     34  H   UNL     1      52.872   7.672   8.914  0.00  0.00    +0.000 HD
ENDBRANCH  20  23
ENDBRANCH  18  19
ENDBRANCH   4  18
TORSDOF 6
ENDMDL
