MODEL 1
REMARK VINA RESULT:    -7.767      0.000      0.000
REMARK INTER + INTRA:         -10.609
REMARK INTER:                 -10.037
REMARK INTRA:                  -0.571
REMARK UNBOUND:                -0.571
REMARK  Name = 
REMARK  5 active torsions:
REMARK  status: ('A' for Active; 'I' for Inactive)
REMARK    1  A    between atoms: C_2  and  C_4
REMARK    2  A    between atoms: C_6  and  S_7
REMARK    3  A    between atoms: S_7  and  C_8
REMARK    4  A    between atoms: C_8  and  C_9
REMARK    5  A    between atoms: C_13  and  N_14
REMARK                            x       y       z     vdW  Elec       q    Type
REMARK                         _______ _______ _______ _____ _____    ______ ____
ROOT
ATOM      1  S   UNL     1      43.771   2.633  11.102  0.00  0.00    +0.000 S 
ENDROOT
BRANCH   1   4
ATOM      2  C   UNL     1      46.226   2.143   7.937  0.00  0.00    +0.000 A 
ATOM      3  C   UNL     1      45.501   1.992   9.127  0.00  0.00    +0.000 A 
ATOM      4  C   UNL     1      44.692   3.024   9.629  0.00  0.00    +0.000 A 
ATOM      5  C   UNL     1      44.639   4.234   8.932  0.00  0.00    +0.000 A 
ATOM      6  C   UNL     1      45.362   4.397   7.746  0.00  0.00    +0.000 A 
ATOM      7  C   UNL     1      46.143   3.354   7.254  0.00  0.00    +0.000 A 
ATOM      8  F   UNL     1      46.802   3.550   6.101  0.00  0.00    +0.000 F 
BRANCH   2  10
ATOM      9  N   UNL     1      46.577  -0.268   7.697  0.00  0.00    +0.000 N 
ATOM     10  C   UNL     1      47.042   0.994   7.467  0.00  0.00    +0.000 C 
ATOM     11  O   UNL     1      48.110   1.162   6.889  0.00  0.00    +0.000 OA
ATOM     12  H   UNL     1      47.137  -1.042   7.379  0.00  0.00    +0.000 HD
ATOM     13  H   UNL     1      45.703  -0.457   8.171  0.00  0.00    +0.000 HD
ENDBRANCH   2  10
ENDBRANCH   1   4
BRANCH   1  14
ATOM     14  C   UNL     1      43.075   4.226  11.660  0.00  0.00    +0.000 C 
BRANCH  14  15
ATOM     15  C   UNL     1      44.130   5.265  11.988  0.00  0.00    +0.000 A 
ATOM     16  C   UNL     1      44.026   6.597  11.573  0.00  0.00    +0.000 A 
ATOM     17  C   UNL     1      45.003   7.521  11.919  0.00  0.00    +0.000 A 
ATOM     18  C   UNL     1      46.074   7.137  12.726  0.00  0.00    +0.000 A 
ATOM     19  C   UNL     1      46.208   5.827  13.207  0.00  0.00    +0.000 A 
ATOM     20  C   UNL     1      45.218   4.908  12.812  0.00  0.00    +0.000 A 
BRANCH  19  21
ATOM     21  N   UNL     1      47.241   5.471  14.045  0.00  0.00    +0.000 N 
ATOM     22  C   UNL     1      47.313   4.166  14.717  0.00  0.00    +0.000 C 
ATOM     23  C   UNL     1      47.575   4.375  16.221  0.00  0.00    +0.000 C 
ATOM     24  O   UNL     1      48.736   5.189  16.461  0.00  0.00    +0.000 OA
ATOM     25  C   UNL     1      48.576   6.479  15.843  0.00  0.00    +0.000 C 
ATOM     26  C   UNL     1      48.389   6.348  14.325  0.00  0.00    +0.000 C 
ENDBRANCH  19  21
ENDBRANCH  14  15
ENDBRANCH   1  14
TORSDOF 5
ENDMDL
MODEL 2
REMARK VINA RESULT:    -7.627      1.865      2.867
REMARK INTER + INTRA:         -10.427
REMARK INTER:                  -9.683
REMARK INTRA:                  -0.744
REMARK UNBOUND:                -0.571
REMARK  Name = 
REMARK  5 active torsions:
REMARK  status: ('A' for Active; 'I' for Inactive)
REMARK    1  A    between atoms: C_2  and  C_4
REMARK    2  A    between atoms: C_6  and  S_7
REMARK    3  A    between atoms: S_7  and  C_8
REMARK    4  A    between atoms: C_8  and  C_9
REMARK    5  A    between atoms: C_13  and  N_14
REMARK                            x       y       z     vdW  Elec       q    Type
REMARK                         _______ _______ _______ _____ _____    ______ ____
ROOT
ATOM      1  S   UNL     1      43.652   2.484  11.098  0.00  0.00    +0.000 S 
ENDROOT
BRANCH   1   4
ATOM      2  C   UNL     1      46.239   2.163   8.018  0.00  0.00    +0.000 A 
ATOM      3  C   UNL     1      45.447   1.940   9.153  0.00  0.00    +0.000 A 
ATOM      4  C   UNL     1      44.666   2.962   9.714  0.00  0.00    +0.000 A 
ATOM      5  C   UNL     1      44.708   4.234   9.137  0.00  0.00    +0.000 A 
ATOM      6  C   UNL     1      45.498   4.469   8.007  0.00  0.00    +0.000 A 
ATOM      7  C   UNL     1      46.251   3.436   7.453  0.00  0.00    +0.000 A 
ATOM      8  F   UNL     1      46.978   3.705   6.356  0.00  0.00    +0.000 F 
BRANCH   2  10
ATOM      9  N   UNL     1      46.549  -0.242   7.684  0.00  0.00    +0.000 N 
ATOM     10  C   UNL     1      47.019   1.021   7.477  0.00  0.00    +0.000 C 
ATOM     11  O   UNL     1      48.065   1.197   6.860  0.00  0.00    +0.000 OA
ATOM     12  H   UNL     1      47.085  -1.011   7.318  0.00  0.00    +0.000 HD
ATOM     13  H   UNL     1      45.692  -0.437   8.189  0.00  0.00    +0.000 HD
ENDBRANCH   2  10
ENDBRANCH   1   4
BRANCH   1  14
ATOM     14  C   UNL     1      43.480   3.999  12.102  0.00  0.00    +0.000 C 
BRANCH  14  15
ATOM     15  C   UNL     1      44.790   4.490  12.686  0.00  0.00    +0.000 A 
ATOM     16  C   UNL     1      45.800   3.615  13.103  0.00  0.00    +0.000 A 
ATOM     17  C   UNL     1      46.996   4.109  13.607  0.00  0.00    +0.000 A 
ATOM     18  C   UNL     1      47.219   5.485  13.657  0.00  0.00    +0.000 A 
ATOM     19  C   UNL     1      46.261   6.408  13.213  0.00  0.00    +0.000 A 
ATOM     20  C   UNL     1      45.048   5.876  12.737  0.00  0.00    +0.000 A 
BRANCH  19  21
ATOM     21  N   UNL     1      46.510   7.762  13.218  0.00  0.00    +0.000 N 
ATOM     22  C   UNL     1      45.476   8.768  12.938  0.00  0.00    +0.000 C 
ATOM     23  C   UNL     1      45.991   9.753  11.871  0.00  0.00    +0.000 C 
ATOM     24  O   UNL     1      47.252  10.339  12.237  0.00  0.00    +0.000 OA
ATOM     25  C   UNL     1      48.242   9.312  12.424  0.00  0.00    +0.000 C 
ATOM     26  C   UNL     1      47.828   8.337  13.535  0.00  0.00    +0.000 C 
ENDBRANCH  19  21
ENDBRANCH  14  15
ENDBRANCH   1  14
TORSDOF 5
ENDMDL
MODEL 3
REMARK VINA RESULT:    -7.356      3.148      7.487
REMARK INTER + INTRA:         -10.078
REMARK INTER:                  -9.300
REMARK INTRA:                  -0.778
REMARK UNBOUND:                -0.571
REMARK  Name = 
REMARK  5 active torsions:
REMARK  status: ('A' for Active; 'I' for Inactive)
REMARK    1  A    between atoms: C_2  and  C_4
REMARK    2  A    between atoms: C_6  and  S_7
REMARK    3  A    between atoms: S_7  and  C_8
REMARK    4  A    between atoms: C_8  and  C_9
REMARK    5  A    between atoms: C_13  and  N_14
REMARK                            x       y       z     vdW  Elec       q    Type
REMARK                         _______ _______ _______ _____ _____    ______ ____
ROOT
ATOM      1  S   UNL     1      47.141   6.692  12.434  0.00  0.00    +0.000 S 
ENDROOT
BRANCH   1   4
ATOM      2  C   UNL     1      48.053   4.753  15.852  0.00  0.00    +0.000 A 
ATOM      3  C   UNL     1      47.557   5.125  14.595  0.00  0.00    +0.000 A 
ATOM      4  C   UNL     1      47.760   6.415  14.080  0.00  0.00    +0.000 A 
ATOM      5  C   UNL     1      48.450   7.349  14.859  0.00  0.00    +0.000 A 
ATOM      6  C   UNL     1      48.946   6.988  16.116  0.00  0.00    +0.000 A 
ATOM      7  C   UNL     1      48.751   5.697  16.601  0.00  0.00    +0.000 A 
ATOM      8  F   UNL     1      49.263   5.392  17.804  0.00  0.00    +0.000 F 
BRANCH   2  10
ATOM      9  N   UNL     1      46.917   3.159  17.323  0.00  0.00    +0.000 N 
ATOM     10  C   UNL     1      47.811   3.361  16.313  0.00  0.00    +0.000 C 
ATOM     11  O   UNL     1      48.397   2.409  15.808  0.00  0.00    +0.000 OA
ATOM     12  H   UNL     1      46.761   2.214  17.633  0.00  0.00    +0.000 HD
ATOM     13  H   UNL     1      46.410   3.912  17.772  0.00  0.00    +0.000 HD
ENDBRANCH   2  10
ENDBRANCH   1   4
BRANCH   1  14
ATOM     14  C   UNL     1      45.327   6.543  12.581  0.00  0.00    +0.000 C 
BRANCH  14  15
ATOM     15  C   UNL     1      44.793   5.196  12.133  0.00  0.00    +0.000 A 
ATOM     16  C   UNL     1      43.889   4.454  12.901  0.00  0.00    +0.000 A 
ATOM     17  C   UNL     1      43.405   3.237  12.440  0.00  0.00    +0.000 A 
ATOM     18  C   UNL     1      43.781   2.767  11.182  0.00  0.00    +0.000 A 
ATOM     19  C   UNL     1      44.650   3.487  10.350  0.00  0.00    +0.000 A 
ATOM     20  C   UNL     1      45.147   4.701  10.860  0.00  0.00    +0.000 A 
BRANCH  19  21
ATOM     21  N   UNL     1      44.975   3.039   9.089  0.00  0.00    +0.000 N 
ATOM     22  C   UNL     1      45.104   1.614   8.754  0.00  0.00    +0.000 C 
ATOM     23  C   UNL     1      46.443   1.374   8.029  0.00  0.00    +0.000 C 
ATOM     24  O   UNL     1      46.602   2.231   6.885  0.00  0.00    +0.000 OA
ATOM     25  C   UNL     1      46.542   3.612   7.286  0.00  0.00    +0.000 C 
ATOM     26  C   UNL     1      45.196   3.940   7.947  0.00  0.00    +0.000 C 
ENDBRANCH  19  21
ENDBRANCH  14  15
ENDBRANCH   1  14
TORSDOF 5
ENDMDL
MODEL 4
REMARK VINA RESULT:    -7.321      1.812      2.601
REMARK INTER + INTRA:         -10.032
REMARK INTER:                  -9.434
REMARK INTRA:                  -0.598
REMARK UNBOUND:                -0.571
REMARK  Name = 
REMARK  5 active torsions:
REMARK  status: ('A' for Active; 'I' for Inactive)
REMARK    1  A    between atoms: C_2  and  C_4
REMARK    2  A    between atoms: C_6  and  S_7
REMARK    3  A    between atoms: S_7  and  C_8
REMARK    4  A    between atoms: C_8  and  C_9
REMARK    5  A    between atoms: C_13  and  N_14
REMARK                            x       y       z     vdW  Elec       q    Type
REMARK                         _______ _______ _______ _____ _____    ______ ____
ROOT
ATOM      1  S   UNL     1      45.133   5.634   9.749  0.00  0.00    +0.000 S 
ENDROOT
BRANCH   1   4
ATOM      2  C   UNL     1      46.542   2.532   7.588  0.00  0.00    +0.000 A 
ATOM      3  C   UNL     1      46.237   3.801   8.100  0.00  0.00    +0.000 A 
ATOM      4  C   UNL     1      45.337   3.965   9.165  0.00  0.00    +0.000 A 
ATOM      5  C   UNL     1      44.717   2.833   9.700  0.00  0.00    +0.000 A 
ATOM      6  C   UNL     1      45.012   1.563   9.195  0.00  0.00    +0.000 A 
ATOM      7  C   UNL     1      45.923   1.419   8.151  0.00  0.00    +0.000 A 
ATOM      8  F   UNL     1      46.189   0.178   7.713  0.00  0.00    +0.000 F 
BRANCH   2  10
ATOM      9  N   UNL     1      47.299   3.199   5.358  0.00  0.00    +0.000 N 
ATOM     10  C   UNL     1      47.521   2.447   6.473  0.00  0.00    +0.000 C 
ATOM     11  O   UNL     1      48.505   1.718   6.542  0.00  0.00    +0.000 OA
ATOM     12  H   UNL     1      47.964   3.133   4.605  0.00  0.00    +0.000 HD
ATOM     13  H   UNL     1      46.501   3.813   5.254  0.00  0.00    +0.000 HD
ENDBRANCH   2  10
ENDBRANCH   1   4
BRANCH   1  14
ATOM     14  C   UNL     1      44.992   5.485  11.564  0.00  0.00    +0.000 C 
BRANCH  14  15
ATOM     15  C   UNL     1      46.264   5.855  12.301  0.00  0.00    +0.000 A 
ATOM     16  C   UNL     1      47.194   6.764  11.783  0.00  0.00    +0.000 A 
ATOM     17  C   UNL     1      48.333   7.095  12.505  0.00  0.00    +0.000 A 
ATOM     18  C   UNL     1      48.536   6.558  13.776  0.00  0.00    +0.000 A 
ATOM     19  C   UNL     1      47.618   5.676  14.364  0.00  0.00    +0.000 A 
ATOM     20  C   UNL     1      46.490   5.337  13.593  0.00  0.00    +0.000 A 
BRANCH  19  21
ATOM     21  N   UNL     1      47.802   5.191  15.640  0.00  0.00    +0.000 N 
ATOM     22  C   UNL     1      48.596   5.894  16.657  0.00  0.00    +0.000 C 
ATOM     23  C   UNL     1      49.612   4.918  17.282  0.00  0.00    +0.000 C 
ATOM     24  O   UNL     1      48.981   3.731  17.792  0.00  0.00    +0.000 OA
ATOM     25  C   UNL     1      48.283   3.046  16.735  0.00  0.00    +0.000 C 
ATOM     26  C   UNL     1      47.196   3.939  16.119  0.00  0.00    +0.000 C 
ENDBRANCH  19  21
ENDBRANCH  14  15
ENDBRANCH   1  14
TORSDOF 5
ENDMDL
MODEL 5
REMARK VINA RESULT:    -7.147      1.412      1.805
REMARK INTER + INTRA:          -9.807
REMARK INTER:                  -9.290
REMARK INTRA:                  -0.517
REMARK UNBOUND:                -0.571
REMARK  Name = 
REMARK  5 active torsions:
REMARK  status: ('A' for Active; 'I' for Inactive)
REMARK    1  A    between atoms: C_2  and  C_4
REMARK    2  A    between atoms: C_6  and  S_7
REMARK    3  A    between atoms: S_7  and  C_8
REMARK    4  A    between atoms: C_8  and  C_9
REMARK    5  A    between atoms: C_13  and  N_14
REMARK                            x       y       z     vdW  Elec       q    Type
REMARK                         _______ _______ _______ _____ _____    ______ ____
ROOT
ATOM      1  S   UNL     1      43.752   2.716  10.946  0.00  0.00    +0.000 S 
ENDROOT
BRANCH   1   4
ATOM      2  C   UNL     1      46.388   2.266   7.925  0.00  0.00    +0.000 A 
ATOM      3  C   UNL     1      45.542   2.076   9.027  0.00  0.00    +0.000 A 
ATOM      4  C   UNL     1      44.852   3.147   9.614  0.00  0.00    +0.000 A 
ATOM      5  C   UNL     1      45.040   4.432   9.097  0.00  0.00    +0.000 A 
ATOM      6  C   UNL     1      45.884   4.633   8.000  0.00  0.00    +0.000 A 
ATOM      7  C   UNL     1      46.546   3.554   7.419  0.00  0.00    +0.000 A 
ATOM      8  F   UNL     1      47.329   3.793   6.355  0.00  0.00    +0.000 F 
BRANCH   2  10
ATOM      9  N   UNL     1      46.607  -0.163   7.701  0.00  0.00    +0.000 N 
ATOM     10  C   UNL     1      47.066   1.074   7.352  0.00  0.00    +0.000 C 
ATOM     11  O   UNL     1      48.017   1.186   6.587  0.00  0.00    +0.000 OA
ATOM     12  H   UNL     1      47.075  -0.965   7.313  0.00  0.00    +0.000 HD
ATOM     13  H   UNL     1      45.827  -0.306   8.331  0.00  0.00    +0.000 HD
ENDBRANCH   2  10
ENDBRANCH   1   4
BRANCH   1  14
ATOM     14  C   UNL     1      44.599   3.290  12.460  0.00  0.00    +0.000 C 
BRANCH  14  15
ATOM     15  C   UNL     1      44.998   4.752  12.411  0.00  0.00    +0.000 A 
ATOM     16  C   UNL     1      44.082   5.771  12.129  0.00  0.00    +0.000 A 
ATOM     17  C   UNL     1      44.486   7.099  12.121  0.00  0.00    +0.000 A 
ATOM     18  C   UNL     1      45.803   7.432  12.441  0.00  0.00    +0.000 A 
ATOM     19  C   UNL     1      46.754   6.457  12.773  0.00  0.00    +0.000 A 
ATOM     20  C   UNL     1      46.320   5.118  12.742  0.00  0.00    +0.000 A 
BRANCH  19  21
ATOM     21  N   UNL     1      48.038   6.798  13.137  0.00  0.00    +0.000 N 
ATOM     22  C   UNL     1      48.549   6.645  14.507  0.00  0.00    +0.000 C 
ATOM     23  C   UNL     1      49.204   7.963  14.962  0.00  0.00    +0.000 C 
ATOM     24  O   UNL     1      50.210   8.417  14.040  0.00  0.00    +0.000 OA
ATOM     25  C   UNL     1      49.634   8.621  12.737  0.00  0.00    +0.000 C 
ATOM     26  C   UNL     1      49.032   7.321  12.186  0.00  0.00    +0.000 C 
ENDBRANCH  19  21
ENDBRANCH  14  15
ENDBRANCH   1  14
TORSDOF 5
ENDMDL
MODEL 6
REMARK VINA RESULT:    -7.028      2.666      4.277
REMARK INTER + INTRA:          -9.654
REMARK INTER:                  -8.840
REMARK INTRA:                  -0.814
REMARK UNBOUND:                -0.571
REMARK  Name = 
REMARK  5 active torsions:
REMARK  status: ('A' for Active; 'I' for Inactive)
REMARK    1  A    between atoms: C_2  and  C_4
REMARK    2  A    between atoms: C_6  and  S_7
REMARK    3  A    between atoms: S_7  and  C_8
REMARK    4  A    between atoms: C_8  and  C_9
REMARK    5  A    between atoms: C_13  and  N_14
REMARK                            x       y       z     vdW  Elec       q    Type
REMARK                         _______ _______ _______ _____ _____    ______ ____
ROOT
ATOM      1  S   UNL     1      45.625   7.351  12.064  0.00  0.00    +0.000 S 
ENDROOT
BRANCH   1   4
ATOM      2  C   UNL     1      44.442   3.786  10.591  0.00  0.00    +0.000 A 
ATOM      3  C   UNL     1      44.989   5.064  10.775  0.00  0.00    +0.000 A 
ATOM      4  C   UNL     1      44.785   5.784  11.962  0.00  0.00    +0.000 A 
ATOM      5  C   UNL     1      43.995   5.217  12.965  0.00  0.00    +0.000 A 
ATOM      6  C   UNL     1      43.441   3.944  12.790  0.00  0.00    +0.000 A 
ATOM      7  C   UNL     1      43.671   3.237  11.613  0.00  0.00    +0.000 A 
ATOM      8  F   UNL     1      43.136   2.011  11.500  0.00  0.00    +0.000 F 
BRANCH   2  10
ATOM      9  N   UNL     1      44.270   3.644   8.153  0.00  0.00    +0.000 N 
ATOM     10  C   UNL     1      44.723   3.085   9.312  0.00  0.00    +0.000 C 
ATOM     11  O   UNL     1      45.342   2.027   9.286  0.00  0.00    +0.000 OA
ATOM     12  H   UNL     1      44.460   3.160   7.291  0.00  0.00    +0.000 HD
ATOM     13  H   UNL     1      43.753   4.514   8.124  0.00  0.00    +0.000 HD
ENDBRANCH   2  10
ENDBRANCH   1   4
BRANCH   1  14
ATOM     14  C   UNL     1      47.385   6.962  11.773  0.00  0.00    +0.000 C 
BRANCH  14  15
ATOM     15  C   UNL     1      48.218   6.948  13.040  0.00  0.00    +0.000 A 
ATOM     16  C   UNL     1      49.318   7.793  13.225  0.00  0.00    +0.000 A 
ATOM     17  C   UNL     1      50.036   7.764  14.412  0.00  0.00    +0.000 A 
ATOM     18  C   UNL     1      49.637   6.924  15.452  0.00  0.00    +0.000 A 
ATOM     19  C   UNL     1      48.518   6.087  15.340  0.00  0.00    +0.000 A 
ATOM     20  C   UNL     1      47.830   6.117  14.112  0.00  0.00    +0.000 A 
BRANCH  19  21
ATOM     21  N   UNL     1      48.101   5.299  16.390  0.00  0.00    +0.000 N 
ATOM     22  C   UNL     1      48.334   5.651  17.797  0.00  0.00    +0.000 C 
ATOM     23  C   UNL     1      48.960   4.450  18.532  0.00  0.00    +0.000 C 
ATOM     24  O   UNL     1      48.178   3.253  18.381  0.00  0.00    +0.000 OA
ATOM     25  C   UNL     1      48.048   2.917  16.987  0.00  0.00    +0.000 C 
ATOM     26  C   UNL     1      47.356   4.043  16.207  0.00  0.00    +0.000 C 
ENDBRANCH  19  21
ENDBRANCH  14  15
ENDBRANCH   1  14
TORSDOF 5
ENDMDL
MODEL 7
REMARK VINA RESULT:    -6.988      4.326      8.096
REMARK INTER + INTRA:          -9.601
REMARK INTER:                  -8.732
REMARK INTRA:                  -0.869
REMARK UNBOUND:                -0.571
REMARK  Name = 
REMARK  5 active torsions:
REMARK  status: ('A' for Active; 'I' for Inactive)
REMARK    1  A    between atoms: C_2  and  C_4
REMARK    2  A    between atoms: C_6  and  S_7
REMARK    3  A    between atoms: S_7  and  C_8
REMARK    4  A    between atoms: C_8  and  C_9
REMARK    5  A    between atoms: C_13  and  N_14
REMARK                            x       y       z     vdW  Elec       q    Type
REMARK                         _______ _______ _______ _____ _____    ______ ____
ROOT
ATOM      1  S   UNL     1      49.881   8.157  15.011  0.00  0.00    +0.000 S 
ENDROOT
BRANCH   1   4
ATOM      2  C   UNL     1      48.583   5.144  17.359  0.00  0.00    +0.000 A 
ATOM      3  C   UNL     1      48.687   6.276  16.539  0.00  0.00    +0.000 A 
ATOM      4  C   UNL     1      49.935   6.766  16.121  0.00  0.00    +0.000 A 
ATOM      5  C   UNL     1      51.092   6.119  16.561  0.00  0.00    +0.000 A 
ATOM      6  C   UNL     1      50.999   4.990  17.382  0.00  0.00    +0.000 A 
ATOM      7  C   UNL     1      49.752   4.507  17.770  0.00  0.00    +0.000 A 
ATOM      8  F   UNL     1      49.713   3.410  18.542  0.00  0.00    +0.000 F 
BRANCH   2  10
ATOM      9  N   UNL     1      46.520   5.412  18.649  0.00  0.00    +0.000 N 
ATOM     10  C   UNL     1      47.223   4.680  17.738  0.00  0.00    +0.000 C 
ATOM     11  O   UNL     1      46.737   3.664  17.254  0.00  0.00    +0.000 OA
ATOM     12  H   UNL     1      45.601   5.090  18.904  0.00  0.00    +0.000 HD
ATOM     13  H   UNL     1      46.880   6.257  19.077  0.00  0.00    +0.000 HD
ENDBRANCH   2  10
ENDBRANCH   1   4
BRANCH   1  14
ATOM     14  C   UNL     1      49.452   7.447  13.385  0.00  0.00    +0.000 C 
BRANCH  14  15
ATOM     15  C   UNL     1      47.960   7.404  13.119  0.00  0.00    +0.000 A 
ATOM     16  C   UNL     1      47.134   8.520  13.295  0.00  0.00    +0.000 A 
ATOM     17  C   UNL     1      45.777   8.444  13.014  0.00  0.00    +0.000 A 
ATOM     18  C   UNL     1      45.232   7.263  12.507  0.00  0.00    +0.000 A 
ATOM     19  C   UNL     1      46.018   6.127  12.270  0.00  0.00    +0.000 A 
ATOM     20  C   UNL     1      47.384   6.228  12.595  0.00  0.00    +0.000 A 
BRANCH  19  21
ATOM     21  N   UNL     1      45.482   4.983  11.722  0.00  0.00    +0.000 N 
ATOM     22  C   UNL     1      45.150   4.859  10.295  0.00  0.00    +0.000 C 
ATOM     23  C   UNL     1      43.709   4.332  10.146  0.00  0.00    +0.000 C 
ATOM     24  O   UNL     1      43.500   3.110  10.875  0.00  0.00    +0.000 OA
ATOM     25  C   UNL     1      43.768   3.314  12.274  0.00  0.00    +0.000 C 
ATOM     26  C   UNL     1      45.217   3.764  12.502  0.00  0.00    +0.000 C 
ENDBRANCH  19  21
ENDBRANCH  14  15
ENDBRANCH   1  14
TORSDOF 5
ENDMDL
MODEL 8
REMARK VINA RESULT:    -6.410      4.715      7.905
REMARK INTER + INTRA:          -8.856
REMARK INTER:                  -7.798
REMARK INTRA:                  -1.058
REMARK UNBOUND:                -0.571
REMARK  Name = 
REMARK  5 active torsions:
REMARK  status: ('A' for Active; 'I' for Inactive)
REMARK    1  A    between atoms: C_2  and  C_4
REMARK    2  A    between atoms: C_6  and  S_7
REMARK    3  A    between atoms: S_7  and  C_8
REMARK    4  A    between atoms: C_8  and  C_9
REMARK    5  A    between atoms: C_13  and  N_14
REMARK                            x       y       z     vdW  Elec       q    Type
REMARK                         _______ _______ _______ _____ _____    ______ ____
ROOT
ATOM      1  S   UNL     1      50.370   7.336  17.558  0.00  0.00    +0.000 S 
ENDROOT
BRANCH   1   4
ATOM      2  C   UNL     1      49.184   3.487  17.329  0.00  0.00    +0.000 A 
ATOM      3  C   UNL     1      49.896   4.693  17.266  0.00  0.00    +0.000 A 
ATOM      4  C   UNL     1      49.297   5.916  17.608  0.00  0.00    +0.000 A 
ATOM      5  C   UNL     1      47.954   5.922  17.991  0.00  0.00    +0.000 A 
ATOM      6  C   UNL     1      47.233   4.725  18.054  0.00  0.00    +0.000 A 
ATOM      7  C   UNL     1      47.850   3.519  17.730  0.00  0.00    +0.000 A 
ATOM      8  F   UNL     1      47.123   2.394  17.824  0.00  0.00    +0.000 F 
BRANCH   2  10
ATOM      9  N   UNL     1      50.876   1.783  17.806  0.00  0.00    +0.000 N 
ATOM     10  C   UNL     1      49.899   2.235  16.969  0.00  0.00    +0.000 C 
ATOM     11  O   UNL     1      49.628   1.617  15.945  0.00  0.00    +0.000 OA
ATOM     12  H   UNL     1      51.359   0.938  17.553  0.00  0.00    +0.000 HD
ATOM     13  H   UNL     1      51.137   2.260  18.660  0.00  0.00    +0.000 HD
ENDBRANCH   2  10
ENDBRANCH   1   4
BRANCH   1  14
ATOM     14  C   UNL     1      49.512   8.537  16.482  0.00  0.00    +0.000 C 
BRANCH  14  15
ATOM     15  C   UNL     1      49.341   8.055  15.055  0.00  0.00    +0.000 A 
ATOM     16  C   UNL     1      50.385   8.081  14.124  0.00  0.00    +0.000 A 
ATOM     17  C   UNL     1      50.192   7.604  12.835  0.00  0.00    +0.000 A 
ATOM     18  C   UNL     1      48.964   7.050  12.470  0.00  0.00    +0.000 A 
ATOM     19  C   UNL     1      47.896   6.958  13.373  0.00  0.00    +0.000 A 
ATOM     20  C   UNL     1      48.114   7.479  14.663  0.00  0.00    +0.000 A 
BRANCH  19  21
ATOM     21  N   UNL     1      46.705   6.363  13.020  0.00  0.00    +0.000 N 
ATOM     22  C   UNL     1      46.155   5.194  13.720  0.00  0.00    +0.000 C 
ATOM     23  C   UNL     1      45.779   4.109  12.693  0.00  0.00    +0.000 C 
ATOM     24  O   UNL     1      44.899   4.609  11.672  0.00  0.00    +0.000 OA
ATOM     25  C   UNL     1      45.522   5.702  10.972  0.00  0.00    +0.000 C 
ATOM     26  C   UNL     1      45.852   6.857  11.927  0.00  0.00    +0.000 C 
ENDBRANCH  19  21
ENDBRANCH  14  15
ENDBRANCH   1  14
TORSDOF 5
ENDMDL
MODEL 9
REMARK VINA RESULT:    -6.204      2.864      4.542
REMARK INTER + INTRA:          -8.589
REMARK INTER:                  -7.841
REMARK INTRA:                  -0.748
REMARK UNBOUND:                -0.571
REMARK  Name = 
REMARK  5 active torsions:
REMARK  status: ('A' for Active; 'I' for Inactive)
REMARK    1  A    between atoms: C_2  and  C_4
REMARK    2  A    between atoms: C_6  and  S_7
REMARK    3  A    between atoms: S_7  and  C_8
REMARK    4  A    between atoms: C_8  and  C_9
REMARK    5  A    between atoms: C_13  and  N_14
REMARK                            x       y       z     vdW  Elec       q    Type
REMARK                         _______ _______ _______ _____ _____    ______ ____
ROOT
ATOM      1  S   UNL     1      46.313   7.412  12.156  0.00  0.00    +0.000 S 
ENDROOT
BRANCH   1   4
ATOM      2  C   UNL     1      44.448   4.180  10.623  0.00  0.00    +0.000 A 
ATOM      3  C   UNL     1      45.266   5.297  10.842  0.00  0.00    +0.000 A 
ATOM      4  C   UNL     1      45.136   6.086  11.995  0.00  0.00    +0.000 A 
ATOM      5  C   UNL     1      44.147   5.758  12.926  0.00  0.00    +0.000 A 
ATOM      6  C   UNL     1      43.322   4.647  12.715  0.00  0.00    +0.000 A 
ATOM      7  C   UNL     1      43.481   3.865  11.574  0.00  0.00    +0.000 A 
ATOM      8  F   UNL     1      42.680   2.798  11.426  0.00  0.00    +0.000 F 
BRANCH   2  10
ATOM      9  N   UNL     1      45.066   2.089   9.509  0.00  0.00    +0.000 N 
ATOM     10  C   UNL     1      44.666   3.388   9.385  0.00  0.00    +0.000 C 
ATOM     11  O   UNL     1      44.498   3.879   8.274  0.00  0.00    +0.000 OA
ATOM     12  H   UNL     1      45.216   1.560   8.666  0.00  0.00    +0.000 HD
ATOM     13  H   UNL     1      45.219   1.640  10.404  0.00  0.00    +0.000 HD
ENDBRANCH   2  10
ENDBRANCH   1   4
BRANCH   1  14
ATOM     14  C   UNL     1      47.871   6.601  12.659  0.00  0.00    +0.000 C 
BRANCH  14  15
ATOM     15  C   UNL     1      47.720   5.701  13.869  0.00  0.00    +0.000 A 
ATOM     16  C   UNL     1      47.280   4.376  13.770  0.00  0.00    +0.000 A 
ATOM     17  C   UNL     1      47.182   3.579  14.902  0.00  0.00    +0.000 A 
ATOM     18  C   UNL     1      47.568   4.080  16.146  0.00  0.00    +0.000 A 
ATOM     19  C   UNL     1      48.057   5.385  16.300  0.00  0.00    +0.000 A 
ATOM     20  C   UNL     1      48.114   6.177  15.137  0.00  0.00    +0.000 A 
BRANCH  19  21
ATOM     21  N   UNL     1      48.484   5.853  17.523  0.00  0.00    +0.000 N 
ATOM     22  C   UNL     1      49.775   6.528  17.715  0.00  0.00    +0.000 C 
ATOM     23  C   UNL     1      50.525   5.877  18.894  0.00  0.00    +0.000 C 
ATOM     24  O   UNL     1      49.730   5.846  20.092  0.00  0.00    +0.000 OA
ATOM     25  C   UNL     1      48.515   5.109  19.863  0.00  0.00    +0.000 C 
ATOM     26  C   UNL     1      47.677   5.753  18.749  0.00  0.00    +0.000 C 
ENDBRANCH  19  21
ENDBRANCH  14  15
ENDBRANCH   1  14
TORSDOF 5
ENDMDL
