MODEL 1
REMARK VINA RESULT:    -8.168      0.000      0.000
REMARK INTER + INTRA:         -12.596
REMARK INTER:                 -11.511
REMARK INTRA:                  -1.086
REMARK UNBOUND:                -1.086
REMARK  Name = 
REMARK  7 active torsions:
REMARK  status: ('A' for Active; 'I' for Inactive)
REMARK    1  A    between atoms: C_2  and  C_4
REMARK    2  A    between atoms: C_7  and  O_8
REMARK    3  A    between atoms: O_8  and  C_9
REMARK    4  A    between atoms: C_9  and  C_10
REMARK    5  A    between atoms: C_10  and  C_11
REMARK    6  A    between atoms: C_15  and  O_16
REMARK    7  A    between atoms: O_16  and  C_17
REMARK                            x       y       z     vdW  Elec       q    Type
REMARK                         _______ _______ _______ _____ _____    ______ ____
ROOT
ATOM      1  C   UNL     1      43.476   4.598  10.953  0.00  0.00    +0.000 C 
ENDROOT
BRANCH   1   2
ATOM      2  O   UNL     1      43.548   3.213  10.583  0.00  0.00    +0.000 OA
BRANCH   2   6
ATOM      3  C   UNL     1      46.352   2.640   7.609  0.00  0.00    +0.000 A 
ATOM      4  C   UNL     1      45.856   3.923   7.848  0.00  0.00    +0.000 A 
ATOM      5  C   UNL     1      44.901   4.109   8.853  0.00  0.00    +0.000 A 
ATOM      6  C   UNL     1      44.481   3.003   9.579  0.00  0.00    +0.000 A 
ATOM      7  N   UNL     1      44.938   1.754   9.355  0.00  0.00    +0.000 NA
ATOM      8  C   UNL     1      45.851   1.594   8.372  0.00  0.00    +0.000 A 
BRANCH   3  10
ATOM      9  N   UNL     1      47.453   3.164   5.511  0.00  0.00    +0.000 N 
ATOM     10  C   UNL     1      47.366   2.325   6.583  0.00  0.00    +0.000 C 
ATOM     11  O   UNL     1      48.129   1.379   6.707  0.00  0.00    +0.000 OA
ATOM     12  H   UNL     1      48.234   3.005   4.885  0.00  0.00    +0.000 HD
ATOM     13  H   UNL     1      47.038   4.086   5.507  0.00  0.00    +0.000 HD
ENDBRANCH   3  10
ENDBRANCH   2   6
ENDBRANCH   1   2
BRANCH   1  14
ATOM     14  C   UNL     1      43.823   4.762  12.432  0.00  0.00    +0.000 C 
BRANCH  14  15
ATOM     15  C   UNL     1      45.232   5.279  12.613  0.00  0.00    +0.000 A 
ATOM     16  C   UNL     1      45.749   6.252  11.749  0.00  0.00    +0.000 A 
ATOM     17  C   UNL     1      47.028   6.772  11.956  0.00  0.00    +0.000 A 
ATOM     18  C   UNL     1      47.809   6.328  13.028  0.00  0.00    +0.000 A 
ATOM     19  C   UNL     1      47.310   5.355  13.889  0.00  0.00    +0.000 A 
ATOM     20  C   UNL     1      46.023   4.842  13.687  0.00  0.00    +0.000 A 
BRANCH  19  21
ATOM     21  O   UNL     1      47.973   4.867  14.989  0.00  0.00    +0.000 OA
BRANCH  21  22
ATOM     22  C   UNL     1      47.259   4.041  15.937  0.00  0.00    +0.000 C 
ATOM     23  C   UNL     1      47.268   4.503  17.413  0.00  0.00    +0.000 C 
ATOM     24  C   UNL     1      47.675   3.087  17.839  0.00  0.00    +0.000 C 
ATOM     25  C   UNL     1      48.037   2.779  16.383  0.00  0.00    +0.000 C 
ENDBRANCH  21  22
ENDBRANCH  19  21
ENDBRANCH  14  15
ENDBRANCH   1  14
TORSDOF 7
ENDMDL
MODEL 2
REMARK VINA RESULT:    -7.633      1.928      3.797
REMARK INTER + INTRA:         -11.842
REMARK INTER:                 -10.880
REMARK INTRA:                  -0.963
REMARK UNBOUND:                -1.086
REMARK  Name = 
REMARK  7 active torsions:
REMARK  status: ('A' for Active; 'I' for Inactive)
REMARK    1  A    between atoms: C_2  and  C_4
REMARK    2  A    between atoms: C_7  and  O_8
REMARK    3  A    between atoms: O_8  and  C_9
REMARK    4  A    between atoms: C_9  and  C_10
REMARK    5  A    between atoms: C_10  and  C_11
REMARK    6  A    between atoms: C_15  and  O_16
REMARK    7  A    between atoms: O_16  and  C_17
REMARK                            x       y       z     vdW  Elec       q    Type
REMARK                         _______ _______ _______ _____ _____    ______ ____
ROOT
ATOM      1  C   UNL     1      43.363   4.128  11.173  0.00  0.00    +0.000 C 
ENDROOT
BRANCH   1   2
ATOM      2  O   UNL     1      43.556   4.639   9.846  0.00  0.00    +0.000 OA
BRANCH   2   6
ATOM      3  C   UNL     1      46.380   2.439   7.791  0.00  0.00    +0.000 A 
ATOM      4  C   UNL     1      45.553   1.802   8.718  0.00  0.00    +0.000 A 
ATOM      5  C   UNL     1      44.602   2.555   9.415  0.00  0.00    +0.000 A 
ATOM      6  C   UNL     1      44.518   3.916   9.157  0.00  0.00    +0.000 A 
ATOM      7  N   UNL     1      45.316   4.553   8.277  0.00  0.00    +0.000 NA
ATOM      8  C   UNL     1      46.235   3.810   7.621  0.00  0.00    +0.000 A 
BRANCH   3  10
ATOM      9  N   UNL     1      48.456   2.497   6.536  0.00  0.00    +0.000 N 
ATOM     10  C   UNL     1      47.411   1.748   6.992  0.00  0.00    +0.000 C 
ATOM     11  O   UNL     1      47.358   0.546   6.782  0.00  0.00    +0.000 OA
ATOM     12  H   UNL     1      49.214   1.984   6.100  0.00  0.00    +0.000 HD
ATOM     13  H   UNL     1      48.672   3.412   6.908  0.00  0.00    +0.000 HD
ENDBRANCH   3  10
ENDBRANCH   2   6
ENDBRANCH   1   2
BRANCH   1  14
ATOM     14  C   UNL     1      43.505   5.256  12.194  0.00  0.00    +0.000 C 
BRANCH  14  15
ATOM     15  C   UNL     1      44.947   5.447  12.606  0.00  0.00    +0.000 A 
ATOM     16  C   UNL     1      45.506   4.664  13.623  0.00  0.00    +0.000 A 
ATOM     17  C   UNL     1      46.855   4.799  13.958  0.00  0.00    +0.000 A 
ATOM     18  C   UNL     1      47.664   5.718  13.283  0.00  0.00    +0.000 A 
ATOM     19  C   UNL     1      47.119   6.509  12.275  0.00  0.00    +0.000 A 
ATOM     20  C   UNL     1      45.769   6.364  11.933  0.00  0.00    +0.000 A 
BRANCH  19  21
ATOM     21  O   UNL     1      47.823   7.419  11.527  0.00  0.00    +0.000 OA
BRANCH  21  22
ATOM     22  C   UNL     1      48.445   8.547  12.185  0.00  0.00    +0.000 C 
ATOM     23  C   UNL     1      47.894   9.950  11.836  0.00  0.00    +0.000 C 
ATOM     24  C   UNL     1      49.328  10.438  11.596  0.00  0.00    +0.000 C 
ATOM     25  C   UNL     1      49.792   8.978  11.555  0.00  0.00    +0.000 C 
ENDBRANCH  21  22
ENDBRANCH  19  21
ENDBRANCH  14  15
ENDBRANCH   1  14
TORSDOF 7
ENDMDL
MODEL 3
REMARK VINA RESULT:    -6.714      2.857      7.630
REMARK INTER + INTRA:         -10.547
REMARK INTER:                  -9.741
REMARK INTRA:                  -0.806
REMARK UNBOUND:                -1.086
REMARK  Name = 
REMARK  7 active torsions:
REMARK  status: ('A' for Active; 'I' for Inactive)
REMARK    1  A    between atoms: C_2  and  C_4
REMARK    2  A    between atoms: C_7  and  O_8
REMARK    3  A    between atoms: O_8  and  C_9
REMARK    4  A    between atoms: C_9  and  C_10
REMARK    5  A    between atoms: C_10  and  C_11
REMARK    6  A    between atoms: C_15  and  O_16
REMARK    7  A    between atoms: O_16  and  C_17
REMARK                            x       y       z     vdW  Elec       q    Type
REMARK                         _______ _______ _______ _____ _____    ______ ____
ROOT
ATOM      1  C   UNL     1      47.698   6.611  12.305  0.00  0.00    +0.000 C 
ENDROOT
BRANCH   1   2
ATOM      2  O   UNL     1      48.222   7.095  13.551  0.00  0.00    +0.000 OA
BRANCH   2   6
ATOM      3  C   UNL     1      47.840   4.328  16.589  0.00  0.00    +0.000 A 
ATOM      4  C   UNL     1      48.554   5.505  16.817  0.00  0.00    +0.000 A 
ATOM      5  C   UNL     1      48.685   6.436  15.781  0.00  0.00    +0.000 A 
ATOM      6  C   UNL     1      48.095   6.151  14.557  0.00  0.00    +0.000 A 
ATOM      7  N   UNL     1      47.413   5.014  14.312  0.00  0.00    +0.000 NA
ATOM      8  C   UNL     1      47.308   4.122  15.322  0.00  0.00    +0.000 A 
BRANCH   3  10
ATOM      9  N   UNL     1      48.636   3.064  18.501  0.00  0.00    +0.000 N 
ATOM     10  C   UNL     1      47.629   3.279  17.607  0.00  0.00    +0.000 C 
ATOM     11  O   UNL     1      46.579   2.658  17.677  0.00  0.00    +0.000 OA
ATOM     12  H   UNL     1      48.424   2.433  19.266  0.00  0.00    +0.000 HD
ATOM     13  H   UNL     1      49.387   3.726  18.644  0.00  0.00    +0.000 HD
ENDBRANCH   3  10
ENDBRANCH   2   6
ENDBRANCH   1   2
BRANCH   1  14
ATOM     14  C   UNL     1      46.409   7.354  11.956  0.00  0.00    +0.000 C 
BRANCH  14  15
ATOM     15  C   UNL     1      45.292   6.392  11.625  0.00  0.00    +0.000 A 
ATOM     16  C   UNL     1      43.955   6.801  11.696  0.00  0.00    +0.000 A 
ATOM     17  C   UNL     1      42.928   5.929  11.328  0.00  0.00    +0.000 A 
ATOM     18  C   UNL     1      43.222   4.636  10.885  0.00  0.00    +0.000 A 
ATOM     19  C   UNL     1      44.546   4.213  10.817  0.00  0.00    +0.000 A 
ATOM     20  C   UNL     1      45.575   5.092  11.175  0.00  0.00    +0.000 A 
BRANCH  19  21
ATOM     21  O   UNL     1      44.953   2.981  10.369  0.00  0.00    +0.000 OA
BRANCH  21  22
ATOM     22  C   UNL     1      44.893   2.687   8.954  0.00  0.00    +0.000 C 
ATOM     23  C   UNL     1      46.012   1.785   8.380  0.00  0.00    +0.000 C 
ATOM     24  C   UNL     1      46.232   2.800   7.252  0.00  0.00    +0.000 C 
ATOM     25  C   UNL     1      45.423   3.827   8.051  0.00  0.00    +0.000 C 
ENDBRANCH  21  22
ENDBRANCH  19  21
ENDBRANCH  14  15
ENDBRANCH   1  14
TORSDOF 7
ENDMDL
MODEL 4
REMARK VINA RESULT:    -6.695      3.340      8.339
REMARK INTER + INTRA:         -10.520
REMARK INTER:                  -9.865
REMARK INTRA:                  -0.655
REMARK UNBOUND:                -1.086
REMARK  Name = 
REMARK  7 active torsions:
REMARK  status: ('A' for Active; 'I' for Inactive)
REMARK    1  A    between atoms: C_2  and  C_4
REMARK    2  A    between atoms: C_7  and  O_8
REMARK    3  A    between atoms: O_8  and  C_9
REMARK    4  A    between atoms: C_9  and  C_10
REMARK    5  A    between atoms: C_10  and  C_11
REMARK    6  A    between atoms: C_15  and  O_16
REMARK    7  A    between atoms: O_16  and  C_17
REMARK                            x       y       z     vdW  Elec       q    Type
REMARK                         _______ _______ _______ _____ _____    ______ ____
ROOT
ATOM      1  C   UNL     1      47.571   5.878  13.204  0.00  0.00    +0.000 C 
ENDROOT
BRANCH   1   2
ATOM      2  O   UNL     1      47.314   4.612  13.829  0.00  0.00    +0.000 OA
BRANCH   2   6
ATOM      3  C   UNL     1      48.334   4.603  17.829  0.00  0.00    +0.000 A 
ATOM      4  C   UNL     1      47.537   3.575  17.320  0.00  0.00    +0.000 A 
ATOM      5  C   UNL     1      47.190   3.589  15.964  0.00  0.00    +0.000 A 
ATOM      6  C   UNL     1      47.655   4.630  15.173  0.00  0.00    +0.000 A 
ATOM      7  N   UNL     1      48.414   5.638  15.647  0.00  0.00    +0.000 NA
ATOM      8  C   UNL     1      48.729   5.613  16.961  0.00  0.00    +0.000 A 
BRANCH   3  10
ATOM      9  N   UNL     1      48.514   3.616  20.038  0.00  0.00    +0.000 N 
ATOM     10  C   UNL     1      48.770   4.690  19.236  0.00  0.00    +0.000 C 
ATOM     11  O   UNL     1      49.376   5.662  19.659  0.00  0.00    +0.000 OA
ATOM     12  H   UNL     1      48.930   3.641  20.962  0.00  0.00    +0.000 HD
ATOM     13  H   UNL     1      48.267   2.708  19.668  0.00  0.00    +0.000 HD
ENDBRANCH   3  10
ENDBRANCH   2   6
ENDBRANCH   1   2
BRANCH   1  14
ATOM     14  C   UNL     1      46.253   6.551  12.824  0.00  0.00    +0.000 C 
BRANCH  14  15
ATOM     15  C   UNL     1      45.439   5.680  11.895  0.00  0.00    +0.000 A 
ATOM     16  C   UNL     1      44.274   5.051  12.348  0.00  0.00    +0.000 A 
ATOM     17  C   UNL     1      43.490   4.298  11.470  0.00  0.00    +0.000 A 
ATOM     18  C   UNL     1      43.860   4.164  10.128  0.00  0.00    +0.000 A 
ATOM     19  C   UNL     1      45.020   4.778   9.666  0.00  0.00    +0.000 A 
ATOM     20  C   UNL     1      45.799   5.541  10.545  0.00  0.00    +0.000 A 
BRANCH  19  21
ATOM     21  O   UNL     1      45.462   4.741   8.367  0.00  0.00    +0.000 OA
BRANCH  21  22
ATOM     22  C   UNL     1      45.488   3.477   7.664  0.00  0.00    +0.000 C 
ATOM     23  C   UNL     1      45.954   2.240   8.468  0.00  0.00    +0.000 C 
ATOM     24  C   UNL     1      46.914   1.877   7.327  0.00  0.00    +0.000 C 
ATOM     25  C   UNL     1      46.728   3.287   6.756  0.00  0.00    +0.000 C 
ENDBRANCH  21  22
ENDBRANCH  19  21
ENDBRANCH  14  15
ENDBRANCH   1  14
TORSDOF 7
ENDMDL
MODEL 5
REMARK VINA RESULT:    -6.448      3.705      8.342
REMARK INTER + INTRA:         -10.172
REMARK INTER:                  -9.594
REMARK INTRA:                  -0.578
REMARK UNBOUND:                -1.086
REMARK  Name = 
REMARK  7 active torsions:
REMARK  status: ('A' for Active; 'I' for Inactive)
REMARK    1  A    between atoms: C_2  and  C_4
REMARK    2  A    between atoms: C_7  and  O_8
REMARK    3  A    between atoms: O_8  and  C_9
REMARK    4  A    between atoms: C_9  and  C_10
REMARK    5  A    between atoms: C_10  and  C_11
REMARK    6  A    between atoms: C_15  and  O_16
REMARK    7  A    between atoms: O_16  and  C_17
REMARK                            x       y       z     vdW  Elec       q    Type
REMARK                         _______ _______ _______ _____ _____    ______ ____
ROOT
ATOM      1  C   UNL     1      46.961   4.724  14.949  0.00  0.00    +0.000 C 
ENDROOT
BRANCH   1   2
ATOM      2  O   UNL     1      46.965   3.843  16.083  0.00  0.00    +0.000 OA
BRANCH   2   6
ATOM      3  C   UNL     1      50.774   3.318  17.583  0.00  0.00    +0.000 A 
ATOM      4  C   UNL     1      49.992   2.200  17.284  0.00  0.00    +0.000 A 
ATOM      5  C   UNL     1      48.699   2.386  16.782  0.00  0.00    +0.000 A 
ATOM      6  C   UNL     1      48.241   3.683  16.599  0.00  0.00    +0.000 A 
ATOM      7  N   UNL     1      48.975   4.775  16.893  0.00  0.00    +0.000 NA
ATOM      8  C   UNL     1      50.217   4.575  17.388  0.00  0.00    +0.000 A 
BRANCH   3  10
ATOM      9  N   UNL     1      52.911   2.177  17.728  0.00  0.00    +0.000 N 
ATOM     10  C   UNL     1      52.152   3.246  18.107  0.00  0.00    +0.000 C 
ATOM     11  O   UNL     1      52.613   4.126  18.817  0.00  0.00    +0.000 OA
ATOM     12  H   UNL     1      53.888   2.210  17.993  0.00  0.00    +0.000 HD
ATOM     13  H   UNL     1      52.665   1.587  16.945  0.00  0.00    +0.000 HD
ENDBRANCH   3  10
ENDBRANCH   2   6
ENDBRANCH   1   2
BRANCH   1  14
ATOM     14  C   UNL     1      46.960   3.910  13.656  0.00  0.00    +0.000 C 
BRANCH  14  15
ATOM     15  C   UNL     1      45.661   4.077  12.902  0.00  0.00    +0.000 A 
ATOM     16  C   UNL     1      44.817   5.161  13.170  0.00  0.00    +0.000 A 
ATOM     17  C   UNL     1      43.648   5.347  12.429  0.00  0.00    +0.000 A 
ATOM     18  C   UNL     1      43.306   4.452  11.410  0.00  0.00    +0.000 A 
ATOM     19  C   UNL     1      44.132   3.365  11.138  0.00  0.00    +0.000 A 
ATOM     20  C   UNL     1      45.309   3.186  11.875  0.00  0.00    +0.000 A 
BRANCH  19  21
ATOM     21  O   UNL     1      43.913   2.443  10.145  0.00  0.00    +0.000 OA
BRANCH  21  22
ATOM     22  C   UNL     1      44.375   2.725   8.803  0.00  0.00    +0.000 C 
ATOM     23  C   UNL     1      45.729   2.103   8.386  0.00  0.00    +0.000 C 
ATOM     24  C   UNL     1      46.185   3.475   7.874  0.00  0.00    +0.000 C 
ATOM     25  C   UNL     1      45.027   4.120   8.642  0.00  0.00    +0.000 C 
ENDBRANCH  21  22
ENDBRANCH  19  21
ENDBRANCH  14  15
ENDBRANCH   1  14
TORSDOF 7
ENDMDL
MODEL 6
REMARK VINA RESULT:    -5.907      3.824      7.437
REMARK INTER + INTRA:          -9.410
REMARK INTER:                  -8.427
REMARK INTRA:                  -0.983
REMARK UNBOUND:                -1.086
REMARK  Name = 
REMARK  7 active torsions:
REMARK  status: ('A' for Active; 'I' for Inactive)
REMARK    1  A    between atoms: C_2  and  C_4
REMARK    2  A    between atoms: C_7  and  O_8
REMARK    3  A    between atoms: O_8  and  C_9
REMARK    4  A    between atoms: C_9  and  C_10
REMARK    5  A    between atoms: C_10  and  C_11
REMARK    6  A    between atoms: C_15  and  O_16
REMARK    7  A    between atoms: O_16  and  C_17
REMARK                            x       y       z     vdW  Elec       q    Type
REMARK                         _______ _______ _______ _____ _____    ______ ____
ROOT
ATOM      1  C   UNL     1      47.433   5.526  13.082  0.00  0.00    +0.000 C 
ENDROOT
BRANCH   1   2
ATOM      2  O   UNL     1      47.587   6.657  13.952  0.00  0.00    +0.000 OA
BRANCH   2   6
ATOM      3  C   UNL     1      46.453  10.173  12.111  0.00  0.00    +0.000 A 
ATOM      4  C   UNL     1      45.479   9.236  12.464  0.00  0.00    +0.000 A 
ATOM      5  C   UNL     1      45.872   8.043  13.082  0.00  0.00    +0.000 A 
ATOM      6  C   UNL     1      47.223   7.837  13.322  0.00  0.00    +0.000 A 
ATOM      7  N   UNL     1      48.180   8.722  12.977  0.00  0.00    +0.000 NA
ATOM      8  C   UNL     1      47.782   9.862  12.371  0.00  0.00    +0.000 A 
BRANCH   3  10
ATOM      9  N   UNL     1      45.125  12.199  11.972  0.00  0.00    +0.000 N 
ATOM     10  C   UNL     1      46.158  11.466  11.465  0.00  0.00    +0.000 C 
ATOM     11  O   UNL     1      46.836  11.889  10.541  0.00  0.00    +0.000 OA
ATOM     12  H   UNL     1      45.018  13.135  11.600  0.00  0.00    +0.000 HD
ATOM     13  H   UNL     1      44.725  12.017  12.883  0.00  0.00    +0.000 HD
ENDBRANCH   3  10
ENDBRANCH   2   6
ENDBRANCH   1   2
BRANCH   1  14
ATOM     14  C   UNL     1      46.313   4.621  13.594  0.00  0.00    +0.000 C 
BRANCH  14  15
ATOM     15  C   UNL     1      45.116   4.651  12.673  0.00  0.00    +0.000 A 
ATOM     16  C   UNL     1      43.865   5.068  13.144  0.00  0.00    +0.000 A 
ATOM     17  C   UNL     1      42.775   5.155  12.275  0.00  0.00    +0.000 A 
ATOM     18  C   UNL     1      42.919   4.826  10.923  0.00  0.00    +0.000 A 
ATOM     19  C   UNL     1      44.155   4.402  10.443  0.00  0.00    +0.000 A 
ATOM     20  C   UNL     1      45.250   4.326  11.313  0.00  0.00    +0.000 A 
BRANCH  19  21
ATOM     21  O   UNL     1      44.420   4.085   9.134  0.00  0.00    +0.000 OA
BRANCH  21  22
ATOM     22  C   UNL     1      45.713   3.539   8.786  0.00  0.00    +0.000 C 
ATOM     23  C   UNL     1      46.153   3.672   7.308  0.00  0.00    +0.000 C 
ATOM     24  C   UNL     1      46.513   2.181   7.296  0.00  0.00    +0.000 C 
ATOM     25  C   UNL     1      45.717   2.003   8.593  0.00  0.00    +0.000 C 
ENDBRANCH  21  22
ENDBRANCH  19  21
ENDBRANCH  14  15
ENDBRANCH   1  14
TORSDOF 7
ENDMDL
MODEL 7
REMARK VINA RESULT:    -5.902      3.444      6.232
REMARK INTER + INTRA:          -9.402
REMARK INTER:                  -8.687
REMARK INTRA:                  -0.715
REMARK UNBOUND:                -1.086
REMARK  Name = 
REMARK  7 active torsions:
REMARK  status: ('A' for Active; 'I' for Inactive)
REMARK    1  A    between atoms: C_2  and  C_4
REMARK    2  A    between atoms: C_7  and  O_8
REMARK    3  A    between atoms: O_8  and  C_9
REMARK    4  A    between atoms: C_9  and  C_10
REMARK    5  A    between atoms: C_10  and  C_11
REMARK    6  A    between atoms: C_15  and  O_16
REMARK    7  A    between atoms: O_16  and  C_17
REMARK                            x       y       z     vdW  Elec       q    Type
REMARK                         _______ _______ _______ _____ _____    ______ ____
ROOT
ATOM      1  C   UNL     1      47.384   3.854  15.898  0.00  0.00    +0.000 C 
ENDROOT
BRANCH   1   2
ATOM      2  O   UNL     1      47.567   3.421  14.542  0.00  0.00    +0.000 OA
BRANCH   2   6
ATOM      3  C   UNL     1      44.738   5.065  12.027  0.00  0.00    +0.000 A 
ATOM      4  C   UNL     1      45.538   5.905  12.805  0.00  0.00    +0.000 A 
ATOM      5  C   UNL     1      46.491   5.340  13.660  0.00  0.00    +0.000 A 
ATOM      6  C   UNL     1      46.605   3.958  13.702  0.00  0.00    +0.000 A 
ATOM      7  N   UNL     1      45.833   3.129  12.970  0.00  0.00    +0.000 NA
ATOM      8  C   UNL     1      44.911   3.693  12.159  0.00  0.00    +0.000 A 
BRANCH   3  10
ATOM      9  N   UNL     1      43.293   6.839  11.218  0.00  0.00    +0.000 N 
ATOM     10  C   UNL     1      43.708   5.546  11.085  0.00  0.00    +0.000 C 
ATOM     11  O   UNL     1      43.275   4.833  10.193  0.00  0.00    +0.000 OA
ATOM     12  H   UNL     1      42.683   7.187  10.487  0.00  0.00    +0.000 HD
ATOM     13  H   UNL     1      43.810   7.524  11.752  0.00  0.00    +0.000 HD
ENDBRANCH   3  10
ENDBRANCH   2   6
ENDBRANCH   1   2
BRANCH   1  14
ATOM     14  C   UNL     1      47.809   2.748  16.863  0.00  0.00    +0.000 C 
BRANCH  14  15
ATOM     15  C   UNL     1      49.231   2.945  17.335  0.00  0.00    +0.000 A 
ATOM     16  C   UNL     1      50.208   1.976  17.077  0.00  0.00    +0.000 A 
ATOM     17  C   UNL     1      51.534   2.189  17.459  0.00  0.00    +0.000 A 
ATOM     18  C   UNL     1      51.903   3.374  18.105  0.00  0.00    +0.000 A 
ATOM     19  C   UNL     1      50.940   4.342  18.375  0.00  0.00    +0.000 A 
ATOM     20  C   UNL     1      49.613   4.131  17.981  0.00  0.00    +0.000 A 
BRANCH  19  21
ATOM     21  O   UNL     1      51.192   5.552  18.973  0.00  0.00    +0.000 OA
BRANCH  21  22
ATOM     22  C   UNL     1      51.638   5.582  20.349  0.00  0.00    +0.000 C 
ATOM     23  C   UNL     1      50.693   4.957  21.403  0.00  0.00    +0.000 C 
ATOM     24  C   UNL     1      50.839   6.220  22.262  0.00  0.00    +0.000 C 
ATOM     25  C   UNL     1      51.428   6.947  21.049  0.00  0.00    +0.000 C 
ENDBRANCH  21  22
ENDBRANCH  19  21
ENDBRANCH  14  15
ENDBRANCH   1  14
TORSDOF 7
ENDMDL
MODEL 8
REMARK VINA RESULT:    -5.821      3.615      6.237
REMARK INTER + INTRA:          -9.289
REMARK INTER:                  -8.527
REMARK INTRA:                  -0.762
REMARK UNBOUND:                -1.086
REMARK  Name = 
REMARK  7 active torsions:
REMARK  status: ('A' for Active; 'I' for Inactive)
REMARK    1  A    between atoms: C_2  and  C_4
REMARK    2  A    between atoms: C_7  and  O_8
REMARK    3  A    between atoms: O_8  and  C_9
REMARK    4  A    between atoms: C_9  and  C_10
REMARK    5  A    between atoms: C_10  and  C_11
REMARK    6  A    between atoms: C_15  and  O_16
REMARK    7  A    between atoms: O_16  and  C_17
REMARK                            x       y       z     vdW  Elec       q    Type
REMARK                         _______ _______ _______ _____ _____    ______ ____
ROOT
ATOM      1  C   UNL     1      47.691   3.411  15.872  0.00  0.00    +0.000 C 
ENDROOT
BRANCH   1   2
ATOM      2  O   UNL     1      47.596   2.966  14.511  0.00  0.00    +0.000 OA
BRANCH   2   6
ATOM      3  C   UNL     1      45.203   5.473  12.268  0.00  0.00    +0.000 A 
ATOM      4  C   UNL     1      46.164   6.020  13.120  0.00  0.00    +0.000 A 
ATOM      5  C   UNL     1      46.967   5.164  13.882  0.00  0.00    +0.000 A 
ATOM      6  C   UNL     1      46.777   3.795  13.760  0.00  0.00    +0.000 A 
ATOM      7  N   UNL     1      45.845   3.247  12.954  0.00  0.00    +0.000 NA
ATOM      8  C   UNL     1      45.072   4.090  12.235  0.00  0.00    +0.000 A 
BRANCH   3  10
ATOM      9  N   UNL     1      43.386   5.598  10.665  0.00  0.00    +0.000 N 
ATOM     10  C   UNL     1      44.307   6.274  11.411  0.00  0.00    +0.000 C 
ATOM     11  O   UNL     1      44.355   7.494  11.401  0.00  0.00    +0.000 OA
ATOM     12  H   UNL     1      42.700   6.168  10.183  0.00  0.00    +0.000 HD
ATOM     13  H   UNL     1      43.139   4.635  10.848  0.00  0.00    +0.000 HD
ENDBRANCH   3  10
ENDBRANCH   2   6
ENDBRANCH   1   2
BRANCH   1  14
ATOM     14  C   UNL     1      48.575   2.456  16.674  0.00  0.00    +0.000 C 
BRANCH  14  15
ATOM     15  C   UNL     1      49.519   3.211  17.581  0.00  0.00    +0.000 A 
ATOM     16  C   UNL     1      50.901   3.006  17.498  0.00  0.00    +0.000 A 
ATOM     17  C   UNL     1      51.775   3.750  18.294  0.00  0.00    +0.000 A 
ATOM     18  C   UNL     1      51.280   4.710  19.183  0.00  0.00    +0.000 A 
ATOM     19  C   UNL     1      49.908   4.918  19.281  0.00  0.00    +0.000 A 
ATOM     20  C   UNL     1      49.033   4.179  18.475  0.00  0.00    +0.000 A 
BRANCH  19  21
ATOM     21  O   UNL     1      49.313   5.852  20.093  0.00  0.00    +0.000 OA
BRANCH  21  22
ATOM     22  C   UNL     1      48.126   6.538  19.632  0.00  0.00    +0.000 C 
ATOM     23  C   UNL     1      48.339   7.756  18.703  0.00  0.00    +0.000 C 
ATOM     24  C   UNL     1      47.389   8.577  19.584  0.00  0.00    +0.000 C 
ATOM     25  C   UNL     1      47.514   7.507  20.674  0.00  0.00    +0.000 C 
ENDBRANCH  21  22
ENDBRANCH  19  21
ENDBRANCH  14  15
ENDBRANCH   1  14
TORSDOF 7
ENDMDL
MODEL 9
REMARK VINA RESULT:    -5.758      3.516      5.503
REMARK INTER + INTRA:          -9.199
REMARK INTER:                  -7.889
REMARK INTRA:                  -1.310
REMARK UNBOUND:                -1.086
REMARK  Name = 
REMARK  7 active torsions:
REMARK  status: ('A' for Active; 'I' for Inactive)
REMARK    1  A    between atoms: C_2  and  C_4
REMARK    2  A    between atoms: C_7  and  O_8
REMARK    3  A    between atoms: O_8  and  C_9
REMARK    4  A    between atoms: C_9  and  C_10
REMARK    5  A    between atoms: C_10  and  C_11
REMARK    6  A    between atoms: C_15  and  O_16
REMARK    7  A    between atoms: O_16  and  C_17
REMARK                            x       y       z     vdW  Elec       q    Type
REMARK                         _______ _______ _______ _____ _____    ______ ____
ROOT
ATOM      1  C   UNL     1      49.189   7.262  13.148  0.00  0.00    +0.000 C 
ENDROOT
BRANCH   1   2
ATOM      2  O   UNL     1      48.305   7.259  12.017  0.00  0.00    +0.000 OA
BRANCH   2   6
ATOM      3  C   UNL     1      45.022   4.860  12.727  0.00  0.00    +0.000 A 
ATOM      4  C   UNL     1      46.064   4.892  13.656  0.00  0.00    +0.000 A 
ATOM      5  C   UNL     1      47.177   5.703  13.405  0.00  0.00    +0.000 A 
ATOM      6  C   UNL     1      47.201   6.449  12.235  0.00  0.00    +0.000 A 
ATOM      7  N   UNL     1      46.212   6.422  11.320  0.00  0.00    +0.000 NA
ATOM      8  C   UNL     1      45.151   5.624  11.575  0.00  0.00    +0.000 A 
BRANCH   3  10
ATOM      9  N   UNL     1      43.878   2.725  12.579  0.00  0.00    +0.000 N 
ATOM     10  C   UNL     1      43.797   4.052  12.888  0.00  0.00    +0.000 C 
ATOM     11  O   UNL     1      42.763   4.536  13.322  0.00  0.00    +0.000 OA
ATOM     12  H   UNL     1      43.068   2.164  12.815  0.00  0.00    +0.000 HD
ATOM     13  H   UNL     1      44.762   2.243  12.482  0.00  0.00    +0.000 HD
ENDBRANCH   3  10
ENDBRANCH   2   6
ENDBRANCH   1   2
BRANCH   1  14
ATOM     14  C   UNL     1      49.142   8.621  13.844  0.00  0.00    +0.000 C 
BRANCH  14  15
ATOM     15  C   UNL     1      48.881   8.471  15.326  0.00  0.00    +0.000 A 
ATOM     16  C   UNL     1      48.355   9.536  16.067  0.00  0.00    +0.000 A 
ATOM     17  C   UNL     1      48.056   9.375  17.421  0.00  0.00    +0.000 A 
ATOM     18  C   UNL     1      48.279   8.148  18.055  0.00  0.00    +0.000 A 
ATOM     19  C   UNL     1      48.809   7.084  17.332  0.00  0.00    +0.000 A 
ATOM     20  C   UNL     1      49.098   7.244  15.971  0.00  0.00    +0.000 A 
BRANCH  19  21
ATOM     21  O   UNL     1      49.040   5.829  17.840  0.00  0.00    +0.000 OA
BRANCH  21  22
ATOM     22  C   UNL     1      48.602   4.671  17.092  0.00  0.00    +0.000 C 
ATOM     23  C   UNL     1      47.113   4.273  17.229  0.00  0.00    +0.000 C 
ATOM     24  C   UNL     1      47.540   2.826  17.503  0.00  0.00    +0.000 C 
ATOM     25  C   UNL     1      48.969   3.320  17.752  0.00  0.00    +0.000 C 
ENDBRANCH  21  22
ENDBRANCH  19  21
ENDBRANCH  14  15
ENDBRANCH   1  14
TORSDOF 7
ENDMDL
