MODEL 1
REMARK VINA RESULT:    -8.057      0.000      0.000
REMARK INTER + INTRA:         -11.982
REMARK INTER:                 -10.883
REMARK INTRA:                  -1.098
REMARK UNBOUND:                -1.098
REMARK  Name = 
REMARK  7 active torsions:
REMARK  status: ('A' for Active; 'I' for Inactive)
REMARK    1  A    between atoms: C_1  and  C_2
REMARK    2  A    between atoms: C_2  and  C_3
REMARK    3  A    between atoms: C_2  and  C_24
REMARK    4  A    between atoms: C_3  and  N_4
REMARK    5  A    between atoms: C_7  and  C_8
REMARK    6  A    between atoms: C_8  and  N_9
REMARK    7  A    between atoms: C_10  and  C_12
REMARK                            x       y       z     vdW  Elec       q    Type
REMARK                         _______ _______ _______ _____ _____    ______ ____
ROOT
ATOM      1  C   UNL     1      46.422   7.246  12.669  0.00  0.00    +0.000 C 
ENDROOT
BRANCH   1   5
ATOM      2  N   UNL     1      44.812   4.314  11.179  0.00  0.00    +0.000 NA
ATOM      3  C   UNL     1      45.153   4.423  12.602  0.00  0.00    +0.000 C 
ATOM      4  C   UNL     1      44.491   5.644  13.227  0.00  0.00    +0.000 C 
ATOM      5  C   UNL     1      44.920   6.936  12.527  0.00  0.00    +0.000 C 
ATOM      6  C   UNL     1      44.539   6.793  11.048  0.00  0.00    +0.000 C 
ATOM      7  C   UNL     1      45.143   5.528  10.418  0.00  0.00    +0.000 C 
BRANCH   2   8
ATOM      8  C   UNL     1      45.420   3.114  10.563  0.00  0.00    +0.000 C 
BRANCH   8  10
ATOM      9  C   UNL     1      43.976   1.424   9.317  0.00  0.00    +0.000 C 
ATOM     10  C   UNL     1      44.797   2.711   9.193  0.00  0.00    +0.000 C 
BRANCH  10  11
ATOM     11  C   UNL     1      45.851   2.585   8.103  0.00  0.00    +0.000 A 
ATOM     12  C   UNL     1      46.578   1.392   7.959  0.00  0.00    +0.000 A 
ATOM     13  C   UNL     1      47.479   1.232   6.905  0.00  0.00    +0.000 A 
ATOM     14  C   UNL     1      47.669   2.264   5.988  0.00  0.00    +0.000 A 
ATOM     15  C   UNL     1      46.975   3.463   6.135  0.00  0.00    +0.000 A 
ATOM     16  C   UNL     1      46.072   3.622   7.186  0.00  0.00    +0.000 A 
ENDBRANCH  10  11
ENDBRANCH   8  10
ENDBRANCH   2   8
ENDBRANCH   1   5
BRANCH   1  17
ATOM     17  N   UNL     1      46.924   7.032  14.007  0.00  0.00    +0.000 N 
ATOM     18  C   UNL     1      48.108   6.364  14.213  0.00  0.00    +0.000 C 
ATOM     19  O   UNL     1      48.821   5.990  13.288  0.00  0.00    +0.000 OA
ATOM     20  H   UNL     1      46.261   7.059  14.773  0.00  0.00    +0.000 HD
BRANCH  18  21
ATOM     21  C   UNL     1      48.509   6.186  15.612  0.00  0.00    +0.000 A 
ATOM     22  C   UNL     1      49.132   7.226  16.286  0.00  0.00    +0.000 A 
ATOM     23  S   UNL     1      49.460   6.874  17.924  0.00  0.00    +0.000 S 
ATOM     24  C   UNL     1      48.828   5.301  17.772  0.00  0.00    +0.000 A 
ATOM     25  N   UNL     1      48.818   4.441  18.823  0.00  0.00    +0.000 NA
ATOM     26  C   UNL     1      48.321   3.276  18.558  0.00  0.00    +0.000 A 
ATOM     27  N   UNL     1      47.841   2.892  17.331  0.00  0.00    +0.000 N 
ATOM     28  C   UNL     1      47.838   3.728  16.243  0.00  0.00    +0.000 A 
ATOM     29  O   UNL     1      47.405   3.357  15.161  0.00  0.00    +0.000 OA
ATOM     30  C   UNL     1      48.366   5.053  16.492  0.00  0.00    +0.000 A 
ATOM     31  H   UNL     1      47.470   1.966  17.189  0.00  0.00    +0.000 HD
ENDBRANCH  18  21
ENDBRANCH   1  17
TORSDOF 6
ENDMDL
MODEL 2
REMARK VINA RESULT:    -7.731      1.474      2.558
REMARK INTER + INTRA:         -11.541
REMARK INTER:                 -12.158
REMARK INTRA:                   0.616
REMARK UNBOUND:                -1.098
REMARK  Name = 
REMARK  7 active torsions:
REMARK  status: ('A' for Active; 'I' for Inactive)
REMARK    1  A    between atoms: C_1  and  C_2
REMARK    2  A    between atoms: C_2  and  C_3
REMARK    3  A    between atoms: C_2  and  C_24
REMARK    4  A    between atoms: C_3  and  N_4
REMARK    5  A    between atoms: C_7  and  C_8
REMARK    6  A    between atoms: C_8  and  N_9
REMARK    7  A    between atoms: C_10  and  C_12
REMARK                            x       y       z     vdW  Elec       q    Type
REMARK                         _______ _______ _______ _____ _____    ______ ____
ROOT
ATOM      1  C   UNL     1      45.801   4.692  13.558  0.00  0.00    +0.000 C 
ENDROOT
BRANCH   1   5
ATOM      2  N   UNL     1      43.968   5.150  10.421  0.00  0.00    +0.000 NA
ATOM      3  C   UNL     1      43.475   4.345  11.544  0.00  0.00    +0.000 C 
ATOM      4  C   UNL     1      43.389   5.180  12.815  0.00  0.00    +0.000 C 
ATOM      5  C   UNL     1      44.752   5.761  13.199  0.00  0.00    +0.000 C 
ATOM      6  C   UNL     1      45.231   6.605  12.011  0.00  0.00    +0.000 C 
ATOM      7  C   UNL     1      45.259   5.795  10.704  0.00  0.00    +0.000 C 
BRANCH   2   8
ATOM      8  C   UNL     1      44.026   4.363   9.170  0.00  0.00    +0.000 C 
BRANCH   8  10
ATOM      9  C   UNL     1      45.246   2.749  10.718  0.00  0.00    +0.000 C 
ATOM     10  C   UNL     1      44.595   2.923   9.342  0.00  0.00    +0.000 C 
BRANCH  10  11
ATOM     11  C   UNL     1      45.563   2.556   8.228  0.00  0.00    +0.000 A 
ATOM     12  C   UNL     1      45.882   3.493   7.233  0.00  0.00    +0.000 A 
ATOM     13  C   UNL     1      46.841   3.199   6.261  0.00  0.00    +0.000 A 
ATOM     14  C   UNL     1      47.485   1.964   6.269  0.00  0.00    +0.000 A 
ATOM     15  C   UNL     1      47.158   1.014   7.235  0.00  0.00    +0.000 A 
ATOM     16  C   UNL     1      46.204   1.309   8.207  0.00  0.00    +0.000 A 
ENDBRANCH  10  11
ENDBRANCH   8  10
ENDBRANCH   2   8
ENDBRANCH   1   5
BRANCH   1  17
ATOM     17  N   UNL     1      46.530   4.994  14.769  0.00  0.00    +0.000 N 
ATOM     18  C   UNL     1      47.340   4.049  15.353  0.00  0.00    +0.000 C 
ATOM     19  O   UNL     1      47.540   2.950  14.846  0.00  0.00    +0.000 OA
ATOM     20  H   UNL     1      46.185   5.745  15.356  0.00  0.00    +0.000 HD
BRANCH  18  21
ATOM     21  C   UNL     1      48.013   4.458  16.589  0.00  0.00    +0.000 A 
ATOM     22  C   UNL     1      47.765   3.769  17.768  0.00  0.00    +0.000 A 
ATOM     23  S   UNL     1      48.687   4.329  19.090  0.00  0.00    +0.000 S 
ATOM     24  C   UNL     1      49.409   5.546  18.145  0.00  0.00    +0.000 A 
ATOM     25  N   UNL     1      50.308   6.413  18.680  0.00  0.00    +0.000 NA
ATOM     26  C   UNL     1      50.763   7.293  17.848  0.00  0.00    +0.000 A 
ATOM     27  N   UNL     1      50.392   7.388  16.530  0.00  0.00    +0.000 N 
ATOM     28  C   UNL     1      49.485   6.537  15.953  0.00  0.00    +0.000 A 
ATOM     29  O   UNL     1      49.172   6.647  14.776  0.00  0.00    +0.000 OA
ATOM     30  C   UNL     1      48.959   5.518  16.837  0.00  0.00    +0.000 A 
ATOM     31  H   UNL     1      50.783   8.102  15.935  0.00  0.00    +0.000 HD
ENDBRANCH  18  21
ENDBRANCH   1  17
TORSDOF 6
ENDMDL
MODEL 3
REMARK VINA RESULT:    -7.525      1.749      2.336
REMARK INTER + INTRA:         -11.263
REMARK INTER:                 -11.428
REMARK INTRA:                   0.164
REMARK UNBOUND:                -1.098
REMARK  Name = 
REMARK  7 active torsions:
REMARK  status: ('A' for Active; 'I' for Inactive)
REMARK    1  A    between atoms: C_1  and  C_2
REMARK    2  A    between atoms: C_2  and  C_3
REMARK    3  A    between atoms: C_2  and  C_24
REMARK    4  A    between atoms: C_3  and  N_4
REMARK    5  A    between atoms: C_7  and  C_8
REMARK    6  A    between atoms: C_8  and  N_9
REMARK    7  A    between atoms: C_10  and  C_12
REMARK                            x       y       z     vdW  Elec       q    Type
REMARK                         _______ _______ _______ _____ _____    ______ ____
ROOT
ATOM      1  C   UNL     1      46.954   4.838  13.970  0.00  0.00    +0.000 C 
ENDROOT
BRANCH   1   5
ATOM      2  N   UNL     1      45.187   5.099  10.774  0.00  0.00    +0.000 NA
ATOM      3  C   UNL     1      45.357   3.843  11.512  0.00  0.00    +0.000 C 
ATOM      4  C   UNL     1      44.782   3.956  12.917  0.00  0.00    +0.000 C 
ATOM      5  C   UNL     1      45.456   5.078  13.711  0.00  0.00    +0.000 C 
ATOM      6  C   UNL     1      45.248   6.376  12.920  0.00  0.00    +0.000 C 
ATOM      7  C   UNL     1      45.762   6.257  11.476  0.00  0.00    +0.000 C 
BRANCH   2   8
ATOM      8  C   UNL     1      45.709   4.997   9.394  0.00  0.00    +0.000 C 
BRANCH   8  10
ATOM      9  C   UNL     1      44.056   3.059   9.355  0.00  0.00    +0.000 C 
ATOM     10  C   UNL     1      44.988   3.934   8.511  0.00  0.00    +0.000 C 
BRANCH  10  11
ATOM     11  C   UNL     1      45.974   3.083   7.725  0.00  0.00    +0.000 A 
ATOM     12  C   UNL     1      46.265   1.774   8.141  0.00  0.00    +0.000 A 
ATOM     13  C   UNL     1      47.094   0.953   7.373  0.00  0.00    +0.000 A 
ATOM     14  C   UNL     1      47.647   1.433   6.188  0.00  0.00    +0.000 A 
ATOM     15  C   UNL     1      47.388   2.739   5.778  0.00  0.00    +0.000 A 
ATOM     16  C   UNL     1      46.557   3.558   6.542  0.00  0.00    +0.000 A 
ENDBRANCH  10  11
ENDBRANCH   8  10
ENDBRANCH   2   8
ENDBRANCH   1   5
BRANCH   1  17
ATOM     17  N   UNL     1      47.373   5.224  15.298  0.00  0.00    +0.000 N 
ATOM     18  C   UNL     1      47.364   4.315  16.328  0.00  0.00    +0.000 C 
ATOM     19  O   UNL     1      47.078   3.134  16.161  0.00  0.00    +0.000 OA
ATOM     20  H   UNL     1      47.337   6.208  15.539  0.00  0.00    +0.000 HD
BRANCH  18  21
ATOM     21  C   UNL     1      47.787   4.824  17.636  0.00  0.00    +0.000 A 
ATOM     22  C   UNL     1      46.927   5.625  18.373  0.00  0.00    +0.000 A 
ATOM     23  S   UNL     1      47.549   6.065  19.901  0.00  0.00    +0.000 S 
ATOM     24  C   UNL     1      49.010   5.245  19.606  0.00  0.00    +0.000 A 
ATOM     25  N   UNL     1      50.011   5.236  20.524  0.00  0.00    +0.000 NA
ATOM     26  C   UNL     1      51.068   4.586  20.158  0.00  0.00    +0.000 A 
ATOM     27  N   UNL     1      51.216   3.950  18.951  0.00  0.00    +0.000 N 
ATOM     28  C   UNL     1      50.232   3.938  17.995  0.00  0.00    +0.000 A 
ATOM     29  O   UNL     1      50.393   3.364  16.927  0.00  0.00    +0.000 OA
ATOM     30  C   UNL     1      49.018   4.637  18.363  0.00  0.00    +0.000 A 
ATOM     31  H   UNL     1      52.069   3.463  18.726  0.00  0.00    +0.000 HD
ENDBRANCH  18  21
ENDBRANCH   1  17
TORSDOF 6
ENDMDL
MODEL 4
REMARK VINA RESULT:    -7.195      3.253      8.032
REMARK INTER + INTRA:         -10.817
REMARK INTER:                  -9.719
REMARK INTRA:                  -1.098
REMARK UNBOUND:                -1.098
REMARK  Name = 
REMARK  7 active torsions:
REMARK  status: ('A' for Active; 'I' for Inactive)
REMARK    1  A    between atoms: C_1  and  C_2
REMARK    2  A    between atoms: C_2  and  C_3
REMARK    3  A    between atoms: C_2  and  C_24
REMARK    4  A    between atoms: C_3  and  N_4
REMARK    5  A    between atoms: C_7  and  C_8
REMARK    6  A    between atoms: C_8  and  N_9
REMARK    7  A    between atoms: C_10  and  C_12
REMARK                            x       y       z     vdW  Elec       q    Type
REMARK                         _______ _______ _______ _____ _____    ______ ____
ROOT
ATOM      1  C   UNL     1      46.060   8.200  12.957  0.00  0.00    +0.000 C 
ENDROOT
BRANCH   1   5
ATOM      2  N   UNL     1      49.509   7.915  14.154  0.00  0.00    +0.000 NA
ATOM      3  C   UNL     1      48.860   6.922  13.290  0.00  0.00    +0.000 C 
ATOM      4  C   UNL     1      48.361   7.566  12.003  0.00  0.00    +0.000 C 
ATOM      5  C   UNL     1      47.359   8.687  12.288  0.00  0.00    +0.000 C 
ATOM      6  C   UNL     1      48.072   9.711  13.181  0.00  0.00    +0.000 C 
ATOM      7  C   UNL     1      48.642   9.065  14.454  0.00  0.00    +0.000 C 
BRANCH   2   8
ATOM      8  C   UNL     1      50.031   7.301  15.395  0.00  0.00    +0.000 C 
BRANCH   8  10
ATOM      9  C   UNL     1      49.162   7.727  17.752  0.00  0.00    +0.000 C 
ATOM     10  C   UNL     1      48.936   6.954  16.449  0.00  0.00    +0.000 C 
BRANCH  10  11
ATOM     11  C   UNL     1      48.849   5.458  16.708  0.00  0.00    +0.000 A 
ATOM     12  C   UNL     1      47.783   4.711  16.182  0.00  0.00    +0.000 A 
ATOM     13  C   UNL     1      47.744   3.324  16.334  0.00  0.00    +0.000 A 
ATOM     14  C   UNL     1      48.765   2.669  17.019  0.00  0.00    +0.000 A 
ATOM     15  C   UNL     1      49.815   3.400  17.569  0.00  0.00    +0.000 A 
ATOM     16  C   UNL     1      49.856   4.785  17.415  0.00  0.00    +0.000 A 
ENDBRANCH  10  11
ENDBRANCH   8  10
ENDBRANCH   2   8
ENDBRANCH   1   5
BRANCH   1  17
ATOM     17  N   UNL     1      45.713   6.842  12.605  0.00  0.00    +0.000 N 
ATOM     18  C   UNL     1      44.720   6.587  11.689  0.00  0.00    +0.000 C 
ATOM     19  O   UNL     1      44.141   7.481  11.082  0.00  0.00    +0.000 OA
ATOM     20  H   UNL     1      45.946   6.107  13.264  0.00  0.00    +0.000 HD
BRANCH  18  21
ATOM     21  C   UNL     1      44.438   5.172  11.427  0.00  0.00    +0.000 A 
ATOM     22  C   UNL     1      43.720   4.431  12.354  0.00  0.00    +0.000 A 
ATOM     23  S   UNL     1      43.418   2.827  11.855  0.00  0.00    +0.000 S 
ATOM     24  C   UNL     1      44.283   3.054  10.408  0.00  0.00    +0.000 A 
ATOM     25  N   UNL     1      44.430   2.046   9.508  0.00  0.00    +0.000 NA
ATOM     26  C   UNL     1      45.124   2.358   8.462  0.00  0.00    +0.000 A 
ATOM     27  N   UNL     1      45.692   3.587   8.239  0.00  0.00    +0.000 N 
ATOM     28  C   UNL     1      45.573   4.629   9.123  0.00  0.00    +0.000 A 
ATOM     29  O   UNL     1      46.092   5.713   8.898  0.00  0.00    +0.000 OA
ATOM     30  C   UNL     1      44.787   4.338  10.304  0.00  0.00    +0.000 A 
ATOM     31  H   UNL     1      46.226   3.764   7.403  0.00  0.00    +0.000 HD
ENDBRANCH  18  21
ENDBRANCH   1  17
TORSDOF 6
ENDMDL
MODEL 5
REMARK VINA RESULT:    -7.183      3.552      9.833
REMARK INTER + INTRA:         -10.801
REMARK INTER:                  -9.691
REMARK INTRA:                  -1.111
REMARK UNBOUND:                -1.098
REMARK  Name = 
REMARK  7 active torsions:
REMARK  status: ('A' for Active; 'I' for Inactive)
REMARK    1  A    between atoms: C_1  and  C_2
REMARK    2  A    between atoms: C_2  and  C_3
REMARK    3  A    between atoms: C_2  and  C_24
REMARK    4  A    between atoms: C_3  and  N_4
REMARK    5  A    between atoms: C_7  and  C_8
REMARK    6  A    between atoms: C_8  and  N_9
REMARK    7  A    between atoms: C_10  and  C_12
REMARK                            x       y       z     vdW  Elec       q    Type
REMARK                         _______ _______ _______ _____ _____    ______ ____
ROOT
ATOM      1  C   UNL     1      48.810   6.176  16.117  0.00  0.00    +0.000 C 
ENDROOT
BRANCH   1   5
ATOM      2  N   UNL     1      48.112   5.441  19.636  0.00  0.00    +0.000 NA
ATOM      3  C   UNL     1      47.178   5.156  18.542  0.00  0.00    +0.000 C 
ATOM      4  C   UNL     1      47.820   4.249  17.501  0.00  0.00    +0.000 C 
ATOM      5  C   UNL     1      49.081   4.882  16.906  0.00  0.00    +0.000 C 
ATOM      6  C   UNL     1      50.039   5.154  18.073  0.00  0.00    +0.000 C 
ATOM      7  C   UNL     1      49.383   6.012  19.167  0.00  0.00    +0.000 C 
BRANCH   2   8
ATOM      8  C   UNL     1      47.493   6.293  20.675  0.00  0.00    +0.000 C 
BRANCH   8  10
ATOM      9  C   UNL     1      49.019   7.548  22.283  0.00  0.00    +0.000 C 
ATOM     10  C   UNL     1      48.258   7.621  20.956  0.00  0.00    +0.000 C 
BRANCH  10  11
ATOM     11  C   UNL     1      47.335   8.829  20.919  0.00  0.00    +0.000 A 
ATOM     12  C   UNL     1      46.603   9.192  22.061  0.00  0.00    +0.000 A 
ATOM     13  C   UNL     1      45.827  10.353  22.068  0.00  0.00    +0.000 A 
ATOM     14  C   UNL     1      45.767  11.158  20.933  0.00  0.00    +0.000 A 
ATOM     15  C   UNL     1      46.467  10.795  19.784  0.00  0.00    +0.000 A 
ATOM     16  C   UNL     1      47.245   9.638  19.778  0.00  0.00    +0.000 A 
ENDBRANCH  10  11
ENDBRANCH   8  10
ENDBRANCH   2   8
ENDBRANCH   1   5
BRANCH   1  17
ATOM     17  N   UNL     1      47.697   6.063  15.203  0.00  0.00    +0.000 N 
ATOM     18  C   UNL     1      47.874   6.269  13.855  0.00  0.00    +0.000 C 
ATOM     19  O   UNL     1      48.976   6.482  13.361  0.00  0.00    +0.000 OA
ATOM     20  H   UNL     1      46.761   6.175  15.577  0.00  0.00    +0.000 HD
BRANCH  18  21
ATOM     21  C   UNL     1      46.671   6.150  13.025  0.00  0.00    +0.000 A 
ATOM     22  C   UNL     1      46.109   7.287  12.462  0.00  0.00    +0.000 A 
ATOM     23  S   UNL     1      44.762   6.957  11.466  0.00  0.00    +0.000 S 
ATOM     24  C   UNL     1      44.852   5.291  11.798  0.00  0.00    +0.000 A 
ATOM     25  N   UNL     1      43.961   4.417  11.262  0.00  0.00    +0.000 NA
ATOM     26  C   UNL     1      44.142   3.185  11.613  0.00  0.00    +0.000 A 
ATOM     27  N   UNL     1      45.132   2.750  12.460  0.00  0.00    +0.000 N 
ATOM     28  C   UNL     1      46.048   3.600  13.025  0.00  0.00    +0.000 A 
ATOM     29  O   UNL     1      46.917   3.184  13.778  0.00  0.00    +0.000 OA
ATOM     30  C   UNL     1      45.901   4.991  12.649  0.00  0.00    +0.000 A 
ATOM     31  H   UNL     1      45.216   1.774  12.696  0.00  0.00    +0.000 HD
ENDBRANCH  18  21
ENDBRANCH   1  17
TORSDOF 6
ENDMDL
MODEL 6
REMARK VINA RESULT:    -7.144      2.937      4.008
REMARK INTER + INTRA:         -10.748
REMARK INTER:                 -10.045
REMARK INTRA:                  -0.703
REMARK UNBOUND:                -1.098
REMARK  Name = 
REMARK  7 active torsions:
REMARK  status: ('A' for Active; 'I' for Inactive)
REMARK    1  A    between atoms: C_1  and  C_2
REMARK    2  A    between atoms: C_2  and  C_3
REMARK    3  A    between atoms: C_2  and  C_24
REMARK    4  A    between atoms: C_3  and  N_4
REMARK    5  A    between atoms: C_7  and  C_8
REMARK    6  A    between atoms: C_8  and  N_9
REMARK    7  A    between atoms: C_10  and  C_12
REMARK                            x       y       z     vdW  Elec       q    Type
REMARK                         _______ _______ _______ _____ _____    ______ ____
ROOT
ATOM      1  C   UNL     1      45.008   4.407  13.612  0.00  0.00    +0.000 C 
ENDROOT
BRANCH   1   5
ATOM      2  N   UNL     1      43.467   4.106  10.304  0.00  0.00    +0.000 NA
ATOM      3  C   UNL     1      43.939   2.962  11.091  0.00  0.00    +0.000 C 
ATOM      4  C   UNL     1      43.259   2.922  12.453  0.00  0.00    +0.000 C 
ATOM      5  C   UNL     1      43.525   4.201  13.252  0.00  0.00    +0.000 C 
ATOM      6  C   UNL     1      43.010   5.373  12.407  0.00  0.00    +0.000 C 
ATOM      7  C   UNL     1      43.636   5.389  11.002  0.00  0.00    +0.000 C 
BRANCH   2   8
ATOM      8  C   UNL     1      44.093   4.140   8.963  0.00  0.00    +0.000 C 
BRANCH   8  10
ATOM      9  C   UNL     1      46.260   5.470   8.804  0.00  0.00    +0.000 C 
ATOM     10  C   UNL     1      45.649   4.076   8.979  0.00  0.00    +0.000 C 
BRANCH  10  11
ATOM     11  C   UNL     1      46.190   3.108   7.939  0.00  0.00    +0.000 A 
ATOM     12  C   UNL     1      46.640   3.584   6.697  0.00  0.00    +0.000 A 
ATOM     13  C   UNL     1      47.226   2.717   5.773  0.00  0.00    +0.000 A 
ATOM     14  C   UNL     1      47.361   1.364   6.076  0.00  0.00    +0.000 A 
ATOM     15  C   UNL     1      46.894   0.872   7.293  0.00  0.00    +0.000 A 
ATOM     16  C   UNL     1      46.312   1.739   8.217  0.00  0.00    +0.000 A 
ENDBRANCH  10  11
ENDBRANCH   8  10
ENDBRANCH   2   8
ENDBRANCH   1   5
BRANCH   1  17
ATOM     17  N   UNL     1      45.451   5.772  13.441  0.00  0.00    +0.000 N 
ATOM     18  C   UNL     1      46.766   6.051  13.150  0.00  0.00    +0.000 C 
ATOM     19  O   UNL     1      47.597   5.171  12.952  0.00  0.00    +0.000 OA
ATOM     20  H   UNL     1      44.897   6.507  13.864  0.00  0.00    +0.000 HD
BRANCH  18  21
ATOM     21  C   UNL     1      47.106   7.471  13.021  0.00  0.00    +0.000 A 
ATOM     22  C   UNL     1      46.348   8.286  12.193  0.00  0.00    +0.000 A 
ATOM     23  S   UNL     1      46.835   9.922  12.220  0.00  0.00    +0.000 S 
ATOM     24  C   UNL     1      48.109   9.585  13.296  0.00  0.00    +0.000 A 
ATOM     25  N   UNL     1      48.948  10.564  13.723  0.00  0.00    +0.000 NA
ATOM     26  C   UNL     1      49.878  10.160  14.527  0.00  0.00    +0.000 A 
ATOM     27  N   UNL     1      50.047   8.860  14.935  0.00  0.00    +0.000 N 
ATOM     28  C   UNL     1      49.226   7.842  14.524  0.00  0.00    +0.000 A 
ATOM     29  O   UNL     1      49.403   6.693  14.902  0.00  0.00    +0.000 OA
ATOM     30  C   UNL     1      48.154   8.245  13.636  0.00  0.00    +0.000 A 
ATOM     31  H   UNL     1      50.797   8.610  15.561  0.00  0.00    +0.000 HD
ENDBRANCH  18  21
ENDBRANCH   1  17
TORSDOF 6
ENDMDL
MODEL 7
REMARK VINA RESULT:    -6.974      3.523      8.689
REMARK INTER + INTRA:         -10.519
REMARK INTER:                  -9.247
REMARK INTRA:                  -1.272
REMARK UNBOUND:                -1.098
REMARK  Name = 
REMARK  7 active torsions:
REMARK  status: ('A' for Active; 'I' for Inactive)
REMARK    1  A    between atoms: C_1  and  C_2
REMARK    2  A    between atoms: C_2  and  C_3
REMARK    3  A    between atoms: C_2  and  C_24
REMARK    4  A    between atoms: C_3  and  N_4
REMARK    5  A    between atoms: C_7  and  C_8
REMARK    6  A    between atoms: C_8  and  N_9
REMARK    7  A    between atoms: C_10  and  C_12
REMARK                            x       y       z     vdW  Elec       q    Type
REMARK                         _______ _______ _______ _____ _____    ______ ____
ROOT
ATOM      1  C   UNL     1      48.810   6.008  15.703  0.00  0.00    +0.000 C 
ENDROOT
BRANCH   1   5
ATOM      2  N   UNL     1      51.587   7.058  17.845  0.00  0.00    +0.000 NA
ATOM      3  C   UNL     1      51.747   6.643  16.447  0.00  0.00    +0.000 C 
ATOM      4  C   UNL     1      50.893   7.503  15.525  0.00  0.00    +0.000 C 
ATOM      5  C   UNL     1      49.409   7.414  15.888  0.00  0.00    +0.000 C 
ATOM      6  C   UNL     1      49.277   7.866  17.349  0.00  0.00    +0.000 C 
ATOM      7  C   UNL     1      50.184   7.053  18.286  0.00  0.00    +0.000 C 
BRANCH   2   8
ATOM      8  C   UNL     1      52.436   6.256  18.753  0.00  0.00    +0.000 C 
BRANCH   8  10
ATOM      9  C   UNL     1      52.248   4.861  20.877  0.00  0.00    +0.000 C 
ATOM     10  C   UNL     1      51.688   5.091  19.469  0.00  0.00    +0.000 C 
BRANCH  10  11
ATOM     11  C   UNL     1      51.716   3.809  18.653  0.00  0.00    +0.000 A 
ATOM     12  C   UNL     1      52.852   2.984  18.673  0.00  0.00    +0.000 A 
ATOM     13  C   UNL     1      52.852   1.758  18.004  0.00  0.00    +0.000 A 
ATOM     14  C   UNL     1      51.722   1.348  17.301  0.00  0.00    +0.000 A 
ATOM     15  C   UNL     1      50.597   2.169  17.250  0.00  0.00    +0.000 A 
ATOM     16  C   UNL     1      50.596   3.391  17.921  0.00  0.00    +0.000 A 
ENDBRANCH  10  11
ENDBRANCH   8  10
ENDBRANCH   2   8
ENDBRANCH   1   5
BRANCH   1  17
ATOM     17  N   UNL     1      47.622   5.999  14.881  0.00  0.00    +0.000 N 
ATOM     18  C   UNL     1      47.715   6.100  13.513  0.00  0.00    +0.000 C 
ATOM     19  O   UNL     1      48.792   6.127  12.927  0.00  0.00    +0.000 OA
ATOM     20  H   UNL     1      46.743   6.263  15.312  0.00  0.00    +0.000 HD
BRANCH  18  21
ATOM     21  C   UNL     1      46.444   6.102  12.782  0.00  0.00    +0.000 A 
ATOM     22  C   UNL     1      45.951   7.292  12.265  0.00  0.00    +0.000 A 
ATOM     23  S   UNL     1      44.504   7.100  11.380  0.00  0.00    +0.000 S 
ATOM     24  C   UNL     1      44.459   5.431  11.705  0.00  0.00    +0.000 A 
ATOM     25  N   UNL     1      43.448   4.650  11.243  0.00  0.00    +0.000 NA
ATOM     26  C   UNL     1      43.537   3.404  11.580  0.00  0.00    +0.000 A 
ATOM     27  N   UNL     1      44.544   2.871  12.344  0.00  0.00    +0.000 N 
ATOM     28  C   UNL     1      45.580   3.624  12.834  0.00  0.00    +0.000 A 
ATOM     29  O   UNL     1      46.462   3.122  13.515  0.00  0.00    +0.000 OA
ATOM     30  C   UNL     1      45.539   5.026  12.469  0.00  0.00    +0.000 A 
ATOM     31  H   UNL     1      44.552   1.889  12.574  0.00  0.00    +0.000 HD
ENDBRANCH  18  21
ENDBRANCH   1  17
TORSDOF 6
ENDMDL
MODEL 8
REMARK VINA RESULT:    -6.803      3.571      8.370
REMARK INTER + INTRA:         -10.287
REMARK INTER:                  -9.162
REMARK INTRA:                  -1.125
REMARK UNBOUND:                -1.098
REMARK  Name = 
REMARK  7 active torsions:
REMARK  status: ('A' for Active; 'I' for Inactive)
REMARK    1  A    between atoms: C_1  and  C_2
REMARK    2  A    between atoms: C_2  and  C_3
REMARK    3  A    between atoms: C_2  and  C_24
REMARK    4  A    between atoms: C_3  and  N_4
REMARK    5  A    between atoms: C_7  and  C_8
REMARK    6  A    between atoms: C_8  and  N_9
REMARK    7  A    between atoms: C_10  and  C_12
REMARK                            x       y       z     vdW  Elec       q    Type
REMARK                         _______ _______ _______ _____ _____    ______ ____
ROOT
ATOM      1  C   UNL     1      49.049   7.086  15.284  0.00  0.00    +0.000 C 
ENDROOT
BRANCH   1   5
ATOM      2  N   UNL     1      49.816   7.687  18.814  0.00  0.00    +0.000 NA
ATOM      3  C   UNL     1      50.822   7.702  17.746  0.00  0.00    +0.000 C 
ATOM      4  C   UNL     1      50.462   8.722  16.674  0.00  0.00    +0.000 C 
ATOM      5  C   UNL     1      49.098   8.422  16.048  0.00  0.00    +0.000 C 
ATOM      6  C   UNL     1      48.070   8.427  17.188  0.00  0.00    +0.000 C 
ATOM      7  C   UNL     1      48.454   7.452  18.312  0.00  0.00    +0.000 C 
BRANCH   2   8
ATOM      8  C   UNL     1      50.167   6.725  19.881  0.00  0.00    +0.000 C 
BRANCH   8  10
ATOM      9  C   UNL     1      49.233   4.846  21.326  0.00  0.00    +0.000 C 
ATOM     10  C   UNL     1      49.268   5.453  19.920  0.00  0.00    +0.000 C 
BRANCH  10  11
ATOM     11  C   UNL     1      49.698   4.421  18.889  0.00  0.00    +0.000 A 
ATOM     12  C   UNL     1      51.061   4.160  18.677  0.00  0.00    +0.000 A 
ATOM     13  C   UNL     1      51.462   3.148  17.803  0.00  0.00    +0.000 A 
ATOM     14  C   UNL     1      50.508   2.392  17.125  0.00  0.00    +0.000 A 
ATOM     15  C   UNL     1      49.153   2.659  17.306  0.00  0.00    +0.000 A 
ATOM     16  C   UNL     1      48.751   3.666  18.181  0.00  0.00    +0.000 A 
ENDBRANCH  10  11
ENDBRANCH   8  10
ENDBRANCH   2   8
ENDBRANCH   1   5
BRANCH   1  17
ATOM     17  N   UNL     1      47.785   6.855  14.622  0.00  0.00    +0.000 N 
ATOM     18  C   UNL     1      47.745   6.343  13.347  0.00  0.00    +0.000 C 
ATOM     19  O   UNL     1      48.756   5.995  12.746  0.00  0.00    +0.000 OA
ATOM     20  H   UNL     1      46.978   7.376  14.945  0.00  0.00    +0.000 HD
BRANCH  18  21
ATOM     21  C   UNL     1      46.409   6.172  12.767  0.00  0.00    +0.000 A 
ATOM     22  C   UNL     1      45.720   7.277  12.291  0.00  0.00    +0.000 A 
ATOM     23  S   UNL     1      44.216   6.887  11.582  0.00  0.00    +0.000 S 
ATOM     24  C   UNL     1      44.414   5.234  11.936  0.00  0.00    +0.000 A 
ATOM     25  N   UNL     1      43.461   4.324  11.606  0.00  0.00    +0.000 NA
ATOM     26  C   UNL     1      43.739   3.108  11.950  0.00  0.00    +0.000 A 
ATOM     27  N   UNL     1      44.884   2.723  12.602  0.00  0.00    +0.000 N 
ATOM     28  C   UNL     1      45.868   3.610  12.957  0.00  0.00    +0.000 A 
ATOM     29  O   UNL     1      46.876   3.238  13.541  0.00  0.00    +0.000 OA
ATOM     30  C   UNL     1      45.614   4.985  12.578  0.00  0.00    +0.000 A 
ATOM     31  H   UNL     1      45.038   1.757  12.845  0.00  0.00    +0.000 HD
ENDBRANCH  18  21
ENDBRANCH   1  17
TORSDOF 6
ENDMDL
MODEL 9
REMARK VINA RESULT:    -6.296      3.366      8.040
REMARK INTER + INTRA:          -9.602
REMARK INTER:                  -8.583
REMARK INTRA:                  -1.019
REMARK UNBOUND:                -1.098
REMARK  Name = 
REMARK  7 active torsions:
REMARK  status: ('A' for Active; 'I' for Inactive)
REMARK    1  A    between atoms: C_1  and  C_2
REMARK    2  A    between atoms: C_2  and  C_3
REMARK    3  A    between atoms: C_2  and  C_24
REMARK    4  A    between atoms: C_3  and  N_4
REMARK    5  A    between atoms: C_7  and  C_8
REMARK    6  A    between atoms: C_8  and  N_9
REMARK    7  A    between atoms: C_10  and  C_12
REMARK                            x       y       z     vdW  Elec       q    Type
REMARK                         _______ _______ _______ _____ _____    ______ ____
ROOT
ATOM      1  C   UNL     1      49.161   8.289  16.750  0.00  0.00    +0.000 C 
ENDROOT
BRANCH   1   5
ATOM      2  N   UNL     1      48.960   5.784  19.413  0.00  0.00    +0.000 NA
ATOM      3  C   UNL     1      50.071   6.730  19.264  0.00  0.00    +0.000 C 
ATOM      4  C   UNL     1      49.568   8.167  19.285  0.00  0.00    +0.000 C 
ATOM      5  C   UNL     1      48.561   8.425  18.162  0.00  0.00    +0.000 C 
ATOM      6  C   UNL     1      47.409   7.430  18.354  0.00  0.00    +0.000 C 
ATOM      7  C   UNL     1      47.907   5.977  18.404  0.00  0.00    +0.000 C 
BRANCH   2   8
ATOM      8  C   UNL     1      49.435   4.383  19.430  0.00  0.00    +0.000 C 
BRANCH   8  10
ATOM      9  C   UNL     1      48.362   2.757  17.787  0.00  0.00    +0.000 C 
ATOM     10  C   UNL     1      49.530   3.720  18.023  0.00  0.00    +0.000 C 
BRANCH  10  11
ATOM     11  C   UNL     1      50.865   3.024  17.810  0.00  0.00    +0.000 A 
ATOM     12  C   UNL     1      52.066   3.715  18.038  0.00  0.00    +0.000 A 
ATOM     13  C   UNL     1      53.294   3.058  17.938  0.00  0.00    +0.000 A 
ATOM     14  C   UNL     1      53.336   1.707  17.602  0.00  0.00    +0.000 A 
ATOM     15  C   UNL     1      52.154   1.016  17.345  0.00  0.00    +0.000 A 
ATOM     16  C   UNL     1      50.927   1.670  17.449  0.00  0.00    +0.000 A 
ENDBRANCH  10  11
ENDBRANCH   8  10
ENDBRANCH   2   8
ENDBRANCH   1   5
BRANCH   1  17
ATOM     17  N   UNL     1      48.179   7.958  15.743  0.00  0.00    +0.000 N 
ATOM     18  C   UNL     1      48.494   7.110  14.708  0.00  0.00    +0.000 C 
ATOM     19  O   UNL     1      49.580   6.545  14.629  0.00  0.00    +0.000 OA
ATOM     20  H   UNL     1      47.404   8.597  15.608  0.00  0.00    +0.000 HD
BRANCH  18  21
ATOM     21  C   UNL     1      47.427   6.863  13.734  0.00  0.00    +0.000 A 
ATOM     22  C   UNL     1      46.888   7.924  13.021  0.00  0.00    +0.000 A 
ATOM     23  S   UNL     1      45.713   7.448  11.878  0.00  0.00    +0.000 S 
ATOM     24  C   UNL     1      45.846   5.815  12.336  0.00  0.00    +0.000 A 
ATOM     25  N   UNL     1      45.086   4.854  11.748  0.00  0.00    +0.000 NA
ATOM     26  C   UNL     1      45.283   3.661  12.207  0.00  0.00    +0.000 A 
ATOM     27  N   UNL     1      46.167   3.344  13.208  0.00  0.00    +0.000 N 
ATOM     28  C   UNL     1      46.948   4.284  13.831  0.00  0.00    +0.000 A 
ATOM     29  O   UNL     1      47.725   3.972  14.722  0.00  0.00    +0.000 OA
ATOM     30  C   UNL     1      46.781   5.636  13.340  0.00  0.00    +0.000 A 
ATOM     31  H   UNL     1      46.270   2.392  13.523  0.00  0.00    +0.000 HD
ENDBRANCH  18  21
ENDBRANCH   1  17
TORSDOF 6
ENDMDL
