MODEL 1
REMARK VINA RESULT:    -7.478      0.000      0.000
REMARK INTER + INTRA:         -11.224
REMARK INTER:                 -10.101
REMARK INTRA:                  -1.122
REMARK UNBOUND:                -1.122
REMARK  Name = 
REMARK  7 active torsions:
REMARK  status: ('A' for Active; 'I' for Inactive)
REMARK    1  A    between atoms: C_1  and  C_2
REMARK    2  A    between atoms: C_2  and  N_3
REMARK    3  A    between atoms: N_3  and  C_4
REMARK    4  A    between atoms: C_4  and  C_5
REMARK    5  A    between atoms: C_8  and  C_9
REMARK    6  A    between atoms: C_9  and  N_10
REMARK    7  A    between atoms: C_18  and  C_20
REMARK                            x       y       z     vdW  Elec       q    Type
REMARK                         _______ _______ _______ _____ _____    ______ ____
ROOT
ATOM      1  N   UNL     1      45.864   7.159  11.955  0.00  0.00    +0.000 N 
ATOM      2  C   UNL     1      44.599   6.672  11.591  0.00  0.00    +0.000 C 
ATOM      3  O   UNL     1      43.645   7.427  11.411  0.00  0.00    +0.000 OA
ENDROOT
BRANCH   2   4
ATOM      4  C   UNL     1      44.393   5.226  11.463  0.00  0.00    +0.000 A 
ATOM      5  C   UNL     1      43.659   4.454  12.349  0.00  0.00    +0.000 A 
ATOM      6  S   UNL     1      43.518   2.822  11.868  0.00  0.00    +0.000 S 
ATOM      7  C   UNL     1      44.316   3.130  10.400  0.00  0.00    +0.000 A 
ATOM      8  N   UNL     1      44.442   2.166   9.449  0.00  0.00    +0.000 NA
ATOM      9  C   UNL     1      45.009   2.570   8.360  0.00  0.00    +0.000 A 
ATOM     10  N   UNL     1      45.493   3.837   8.150  0.00  0.00    +0.000 N 
ATOM     11  C   UNL     1      45.512   4.804   9.133  0.00  0.00    +0.000 A 
ATOM     12  O   UNL     1      46.167   5.831   9.000  0.00  0.00    +0.000 OA
ATOM     13  C   UNL     1      44.773   4.434  10.323  0.00  0.00    +0.000 A 
ATOM     14  H   UNL     1      45.986   4.066   7.300  0.00  0.00    +0.000 HD
ENDBRANCH   2   4
BRANCH   1  16
ATOM     15  C   UNL     1      47.356   9.157  11.935  0.00  0.00    +0.000 C 
ATOM     16  C   UNL     1      45.957   8.609  12.189  0.00  0.00    +0.000 C 
ENDBRANCH   1  16
BRANCH   1  17
ATOM     17  C   UNL     1      47.042   6.296  12.156  0.00  0.00    +0.000 C 
BRANCH  17  18
ATOM     18  C   UNL     1      47.339   5.897  13.577  0.00  0.00    +0.000 A 
ATOM     19  C   UNL     1      48.217   6.661  14.361  0.00  0.00    +0.000 A 
ATOM     20  C   UNL     1      48.645   6.189  15.602  0.00  0.00    +0.000 A 
ATOM     21  C   UNL     1      48.193   4.953  16.076  0.00  0.00    +0.000 A 
ATOM     22  C   UNL     1      47.245   4.237  15.331  0.00  0.00    +0.000 A 
ATOM     23  C   UNL     1      46.816   4.707  14.093  0.00  0.00    +0.000 A 
BRANCH  21  24
ATOM     24  C   UNL     1      48.806   4.329  17.308  0.00  0.00    +0.000 C 
BRANCH  24  25
ATOM     25  N   UNL     1      50.149   3.751  17.120  0.00  0.00    +0.000 NA
ATOM     26  C   UNL     1      51.124   4.398  18.013  0.00  0.00    +0.000 C 
ATOM     27  C   UNL     1      52.499   3.730  17.953  0.00  0.00    +0.000 C 
ATOM     28  C   UNL     1      52.395   2.245  18.270  0.00  0.00    +0.000 C 
ATOM     29  C   UNL     1      51.404   1.590  17.320  0.00  0.00    +0.000 C 
ATOM     30  C   UNL     1      50.054   2.300  17.365  0.00  0.00    +0.000 C 
ENDBRANCH  24  25
ENDBRANCH  21  24
ENDBRANCH  17  18
ENDBRANCH   1  17
TORSDOF 6
ENDMDL
MODEL 2
REMARK VINA RESULT:    -7.376      1.768      2.451
REMARK INTER + INTRA:         -11.086
REMARK INTER:                  -9.769
REMARK INTRA:                  -1.317
REMARK UNBOUND:                -1.122
REMARK  Name = 
REMARK  7 active torsions:
REMARK  status: ('A' for Active; 'I' for Inactive)
REMARK    1  A    between atoms: C_1  and  C_2
REMARK    2  A    between atoms: C_2  and  N_3
REMARK    3  A    between atoms: N_3  and  C_4
REMARK    4  A    between atoms: C_4  and  C_5
REMARK    5  A    between atoms: C_8  and  C_9
REMARK    6  A    between atoms: C_9  and  N_10
REMARK    7  A    between atoms: C_18  and  C_20
REMARK                            x       y       z     vdW  Elec       q    Type
REMARK                         _______ _______ _______ _____ _____    ______ ____
ROOT
ATOM      1  N   UNL     1      46.440   7.153  12.150  0.00  0.00    +0.000 N 
ATOM      2  C   UNL     1      45.142   6.849  11.710  0.00  0.00    +0.000 C 
ATOM      3  O   UNL     1      44.341   7.732  11.408  0.00  0.00    +0.000 OA
ENDROOT
BRANCH   2   4
ATOM      4  C   UNL     1      44.712   5.449  11.647  0.00  0.00    +0.000 A 
ATOM      5  C   UNL     1      43.971   4.809  12.627  0.00  0.00    +0.000 A 
ATOM      6  S   UNL     1      43.539   3.210  12.214  0.00  0.00    +0.000 S 
ATOM      7  C   UNL     1      44.212   3.374  10.661  0.00  0.00    +0.000 A 
ATOM      8  N   UNL     1      44.090   2.389   9.732  0.00  0.00    +0.000 NA
ATOM      9  C   UNL     1      44.591   2.687   8.579  0.00  0.00    +0.000 A 
ATOM     10  N   UNL     1      45.232   3.863   8.281  0.00  0.00    +0.000 N 
ATOM     11  C   UNL     1      45.500   4.830   9.228  0.00  0.00    +0.000 A 
ATOM     12  O   UNL     1      46.281   5.745   8.996  0.00  0.00    +0.000 OA
ATOM     13  C   UNL     1      44.845   4.593  10.498  0.00  0.00    +0.000 A 
ATOM     14  H   UNL     1      45.659   4.004   7.378  0.00  0.00    +0.000 HD
ENDBRANCH   2   4
BRANCH   1  16
ATOM     15  C   UNL     1      48.190   8.915  11.927  0.00  0.00    +0.000 C 
ATOM     16  C   UNL     1      46.752   8.582  12.308  0.00  0.00    +0.000 C 
ENDBRANCH   1  16
BRANCH   1  17
ATOM     17  C   UNL     1      47.443   6.130  12.497  0.00  0.00    +0.000 C 
BRANCH  17  18
ATOM     18  C   UNL     1      47.580   5.801  13.959  0.00  0.00    +0.000 A 
ATOM     19  C   UNL     1      48.433   6.555  14.780  0.00  0.00    +0.000 A 
ATOM     20  C   UNL     1      48.711   6.134  16.081  0.00  0.00    +0.000 A 
ATOM     21  C   UNL     1      48.132   4.962  16.578  0.00  0.00    +0.000 A 
ATOM     22  C   UNL     1      47.209   4.263  15.787  0.00  0.00    +0.000 A 
ATOM     23  C   UNL     1      46.929   4.682  14.488  0.00  0.00    +0.000 A 
BRANCH  21  24
ATOM     24  C   UNL     1      48.583   4.378  17.896  0.00  0.00    +0.000 C 
BRANCH  24  25
ATOM     25  N   UNL     1      48.630   5.328  19.023  0.00  0.00    +0.000 NA
ATOM     26  C   UNL     1      47.283   5.836  19.331  0.00  0.00    +0.000 C 
ATOM     27  C   UNL     1      47.265   6.712  20.585  0.00  0.00    +0.000 C 
ATOM     28  C   UNL     1      47.834   5.961  21.781  0.00  0.00    +0.000 C 
ATOM     29  C   UNL     1      49.235   5.469  21.452  0.00  0.00    +0.000 C 
ATOM     30  C   UNL     1      49.234   4.634  20.175  0.00  0.00    +0.000 C 
ENDBRANCH  24  25
ENDBRANCH  21  24
ENDBRANCH  17  18
ENDBRANCH   1  17
TORSDOF 6
ENDMDL
MODEL 3
REMARK VINA RESULT:    -7.024      1.344      2.028
REMARK INTER + INTRA:         -10.609
REMARK INTER:                  -9.274
REMARK INTRA:                  -1.335
REMARK UNBOUND:                -1.122
REMARK  Name = 
REMARK  7 active torsions:
REMARK  status: ('A' for Active; 'I' for Inactive)
REMARK    1  A    between atoms: C_1  and  C_2
REMARK    2  A    between atoms: C_2  and  N_3
REMARK    3  A    between atoms: N_3  and  C_4
REMARK    4  A    between atoms: C_4  and  C_5
REMARK    5  A    between atoms: C_8  and  C_9
REMARK    6  A    between atoms: C_9  and  N_10
REMARK    7  A    between atoms: C_18  and  C_20
REMARK                            x       y       z     vdW  Elec       q    Type
REMARK                         _______ _______ _______ _____ _____    ______ ____
ROOT
ATOM      1  N   UNL     1      46.164   7.556  12.181  0.00  0.00    +0.000 N 
ATOM      2  C   UNL     1      45.028   7.296  11.399  0.00  0.00    +0.000 C 
ATOM      3  O   UNL     1      44.118   8.116  11.293  0.00  0.00    +0.000 OA
ENDROOT
BRANCH   2   4
ATOM      4  C   UNL     1      44.898   6.001  10.725  0.00  0.00    +0.000 A 
ATOM      5  C   UNL     1      45.477   5.686   9.507  0.00  0.00    +0.000 A 
ATOM      6  S   UNL     1      45.227   4.064   9.037  0.00  0.00    +0.000 S 
ATOM      7  C   UNL     1      44.456   3.702  10.508  0.00  0.00    +0.000 A 
ATOM      8  N   UNL     1      44.076   2.432  10.811  0.00  0.00    +0.000 NA
ATOM      9  C   UNL     1      43.568   2.302  11.993  0.00  0.00    +0.000 A 
ATOM     10  N   UNL     1      43.372   3.329  12.881  0.00  0.00    +0.000 N 
ATOM     11  C   UNL     1      43.613   4.650  12.564  0.00  0.00    +0.000 A 
ATOM     12  O   UNL     1      43.201   5.558  13.275  0.00  0.00    +0.000 OA
ATOM     13  C   UNL     1      44.301   4.825  11.301  0.00  0.00    +0.000 A 
ATOM     14  H   UNL     1      42.907   3.168  13.762  0.00  0.00    +0.000 HD
ENDBRANCH   2   4
BRANCH   1  16
ATOM     15  C   UNL     1      47.226   9.798  12.437  0.00  0.00    +0.000 C 
ATOM     16  C   UNL     1      46.161   8.823  12.928  0.00  0.00    +0.000 C 
ENDBRANCH   1  16
BRANCH   1  17
ATOM     17  C   UNL     1      47.291   6.615  12.318  0.00  0.00    +0.000 C 
BRANCH  17  18
ATOM     18  C   UNL     1      47.547   6.080  13.701  0.00  0.00    +0.000 A 
ATOM     19  C   UNL     1      48.459   6.723  14.554  0.00  0.00    +0.000 A 
ATOM     20  C   UNL     1      48.844   6.124  15.752  0.00  0.00    +0.000 A 
ATOM     21  C   UNL     1      48.316   4.881  16.117  0.00  0.00    +0.000 A 
ATOM     22  C   UNL     1      47.336   4.287  15.308  0.00  0.00    +0.000 A 
ATOM     23  C   UNL     1      46.950   4.885  14.111  0.00  0.00    +0.000 A 
BRANCH  21  24
ATOM     24  C   UNL     1      48.876   4.120  17.296  0.00  0.00    +0.000 C 
BRANCH  24  25
ATOM     25  N   UNL     1      50.249   3.611  17.123  0.00  0.00    +0.000 NA
ATOM     26  C   UNL     1      51.181   4.312  18.021  0.00  0.00    +0.000 C 
ATOM     27  C   UNL     1      52.589   3.716  17.976  0.00  0.00    +0.000 C 
ATOM     28  C   UNL     1      52.560   2.229  18.300  0.00  0.00    +0.000 C 
ATOM     29  C   UNL     1      51.613   1.520  17.344  0.00  0.00    +0.000 C 
ATOM     30  C   UNL     1      50.227   2.159  17.374  0.00  0.00    +0.000 C 
ENDBRANCH  24  25
ENDBRANCH  21  24
ENDBRANCH  17  18
ENDBRANCH   1  17
TORSDOF 6
ENDMDL
MODEL 4
REMARK VINA RESULT:    -6.901      3.658      8.064
REMARK INTER + INTRA:         -10.444
REMARK INTER:                  -9.423
REMARK INTRA:                  -1.022
REMARK UNBOUND:                -1.122
REMARK  Name = 
REMARK  7 active torsions:
REMARK  status: ('A' for Active; 'I' for Inactive)
REMARK    1  A    between atoms: C_1  and  C_2
REMARK    2  A    between atoms: C_2  and  N_3
REMARK    3  A    between atoms: N_3  and  C_4
REMARK    4  A    between atoms: C_4  and  C_5
REMARK    5  A    between atoms: C_8  and  C_9
REMARK    6  A    between atoms: C_9  and  N_10
REMARK    7  A    between atoms: C_18  and  C_20
REMARK                            x       y       z     vdW  Elec       q    Type
REMARK                         _______ _______ _______ _____ _____    ______ ____
ROOT
ATOM      1  N   UNL     1      49.076   7.732  13.913  0.00  0.00    +0.000 N 
ATOM      2  C   UNL     1      49.962   7.802  14.999  0.00  0.00    +0.000 C 
ATOM      3  O   UNL     1      51.171   7.630  14.855  0.00  0.00    +0.000 OA
ENDROOT
BRANCH   2   4
ATOM      4  C   UNL     1      49.435   8.043  16.345  0.00  0.00    +0.000 A 
ATOM      5  C   UNL     1      49.433   9.273  16.981  0.00  0.00    +0.000 A 
ATOM      6  S   UNL     1      48.654   9.249  18.500  0.00  0.00    +0.000 S 
ATOM      7  C   UNL     1      48.180   7.630  18.290  0.00  0.00    +0.000 A 
ATOM      8  N   UNL     1      47.375   7.009  19.193  0.00  0.00    +0.000 NA
ATOM      9  C   UNL     1      47.044   5.804  18.861  0.00  0.00    +0.000 A 
ATOM     10  N   UNL     1      47.473   5.154  17.731  0.00  0.00    +0.000 N 
ATOM     11  C   UNL     1      48.398   5.694  16.862  0.00  0.00    +0.000 A 
ATOM     12  O   UNL     1      48.945   5.005  16.010  0.00  0.00    +0.000 OA
ATOM     13  C   UNL     1      48.695   7.087  17.127  0.00  0.00    +0.000 A 
ATOM     14  H   UNL     1      47.230   4.188  17.568  0.00  0.00    +0.000 HD
ENDBRANCH   2   4
BRANCH   1  16
ATOM     15  C   UNL     1      49.800   8.546  11.670  0.00  0.00    +0.000 C 
ATOM     16  C   UNL     1      49.666   7.359  12.618  0.00  0.00    +0.000 C 
ENDBRANCH   1  16
BRANCH   1  17
ATOM     17  C   UNL     1      47.623   7.956  14.031  0.00  0.00    +0.000 C 
BRANCH  17  18
ATOM     18  C   UNL     1      46.749   7.155  13.104  0.00  0.00    +0.000 A 
ATOM     19  C   UNL     1      45.989   7.796  12.113  0.00  0.00    +0.000 A 
ATOM     20  C   UNL     1      45.035   7.085  11.387  0.00  0.00    +0.000 A 
ATOM     21  C   UNL     1      44.835   5.723  11.636  0.00  0.00    +0.000 A 
ATOM     22  C   UNL     1      45.660   5.066  12.561  0.00  0.00    +0.000 A 
ATOM     23  C   UNL     1      46.615   5.776  13.286  0.00  0.00    +0.000 A 
BRANCH  21  24
ATOM     24  C   UNL     1      43.669   4.988  11.018  0.00  0.00    +0.000 C 
BRANCH  24  25
ATOM     25  N   UNL     1      43.992   4.184   9.825  0.00  0.00    +0.000 NA
ATOM     26  C   UNL     1      45.204   4.697   9.164  0.00  0.00    +0.000 C 
ATOM     27  C   UNL     1      45.655   3.806   8.006  0.00  0.00    +0.000 C 
ATOM     28  C   UNL     1      45.873   2.374   8.475  0.00  0.00    +0.000 C 
ATOM     29  C   UNL     1      44.601   1.854   9.129  0.00  0.00    +0.000 C 
ATOM     30  C   UNL     1      44.147   2.782  10.252  0.00  0.00    +0.000 C 
ENDBRANCH  24  25
ENDBRANCH  21  24
ENDBRANCH  17  18
ENDBRANCH   1  17
TORSDOF 6
ENDMDL
MODEL 5
REMARK VINA RESULT:    -6.531      3.479      8.232
REMARK INTER + INTRA:          -9.944
REMARK INTER:                  -8.813
REMARK INTRA:                  -1.131
REMARK UNBOUND:                -1.122
REMARK  Name = 
REMARK  7 active torsions:
REMARK  status: ('A' for Active; 'I' for Inactive)
REMARK    1  A    between atoms: C_1  and  C_2
REMARK    2  A    between atoms: C_2  and  N_3
REMARK    3  A    between atoms: N_3  and  C_4
REMARK    4  A    between atoms: C_4  and  C_5
REMARK    5  A    between atoms: C_8  and  C_9
REMARK    6  A    between atoms: C_9  and  N_10
REMARK    7  A    between atoms: C_18  and  C_20
REMARK                            x       y       z     vdW  Elec       q    Type
REMARK                         _______ _______ _______ _____ _____    ______ ____
ROOT
ATOM      1  N   UNL     1      48.980   7.653  14.035  0.00  0.00    +0.000 N 
ATOM      2  C   UNL     1      49.649   7.043  15.108  0.00  0.00    +0.000 C 
ATOM      3  O   UNL     1      50.863   6.850  15.084  0.00  0.00    +0.000 OA
ENDROOT
BRANCH   2   4
ATOM      4  C   UNL     1      48.880   6.583  16.269  0.00  0.00    +0.000 A 
ATOM      5  C   UNL     1      48.386   5.299  16.426  0.00  0.00    +0.000 A 
ATOM      6  S   UNL     1      47.623   5.047  17.933  0.00  0.00    +0.000 S 
ATOM      7  C   UNL     1      48.051   6.602  18.469  0.00  0.00    +0.000 A 
ATOM      8  N   UNL     1      47.794   7.006  19.741  0.00  0.00    +0.000 NA
ATOM      9  C   UNL     1      48.241   8.185  20.021  0.00  0.00    +0.000 A 
ATOM     10  N   UNL     1      48.888   9.011  19.136  0.00  0.00    +0.000 N 
ATOM     11  C   UNL     1      49.047   8.699  17.802  0.00  0.00    +0.000 A 
ATOM     12  O   UNL     1      49.401   9.547  16.991  0.00  0.00    +0.000 OA
ATOM     13  C   UNL     1      48.676   7.337  17.477  0.00  0.00    +0.000 A 
ATOM     14  H   UNL     1      49.151   9.948  19.402  0.00  0.00    +0.000 HD
ENDBRANCH   2   4
BRANCH   1  16
ATOM     15  C   UNL     1      49.383   9.269  12.179  0.00  0.00    +0.000 C 
ATOM     16  C   UNL     1      49.801   7.968  12.855  0.00  0.00    +0.000 C 
ENDBRANCH   1  16
BRANCH   1  17
ATOM     17  C   UNL     1      47.532   7.929  14.029  0.00  0.00    +0.000 C 
BRANCH  17  18
ATOM     18  C   UNL     1      46.703   7.108  13.078  0.00  0.00    +0.000 A 
ATOM     19  C   UNL     1      45.852   7.735  12.154  0.00  0.00    +0.000 A 
ATOM     20  C   UNL     1      44.942   6.983  11.412  0.00  0.00    +0.000 A 
ATOM     21  C   UNL     1      44.878   5.596  11.578  0.00  0.00    +0.000 A 
ATOM     22  C   UNL     1      45.793   4.963  12.433  0.00  0.00    +0.000 A 
ATOM     23  C   UNL     1      46.703   5.713  13.174  0.00  0.00    +0.000 A 
BRANCH  21  24
ATOM     24  C   UNL     1      43.764   4.793  10.948  0.00  0.00    +0.000 C 
BRANCH  24  25
ATOM     25  N   UNL     1      44.131   4.055   9.726  0.00  0.00    +0.000 NA
ATOM     26  C   UNL     1      45.355   4.614   9.129  0.00  0.00    +0.000 C 
ATOM     27  C   UNL     1      45.851   3.788   7.941  0.00  0.00    +0.000 C 
ATOM     28  C   UNL     1      46.074   2.336   8.344  0.00  0.00    +0.000 C 
ATOM     29  C   UNL     1      44.791   1.770   8.933  0.00  0.00    +0.000 C 
ATOM     30  C   UNL     1      44.292   2.635  10.087  0.00  0.00    +0.000 C 
ENDBRANCH  24  25
ENDBRANCH  21  24
ENDBRANCH  17  18
ENDBRANCH   1  17
TORSDOF 6
ENDMDL
MODEL 6
REMARK VINA RESULT:    -6.476      3.512      7.847
REMARK INTER + INTRA:          -9.870
REMARK INTER:                  -8.253
REMARK INTRA:                  -1.617
REMARK UNBOUND:                -1.122
REMARK  Name = 
REMARK  7 active torsions:
REMARK  status: ('A' for Active; 'I' for Inactive)
REMARK    1  A    between atoms: C_1  and  C_2
REMARK    2  A    between atoms: C_2  and  N_3
REMARK    3  A    between atoms: N_3  and  C_4
REMARK    4  A    between atoms: C_4  and  C_5
REMARK    5  A    between atoms: C_8  and  C_9
REMARK    6  A    between atoms: C_9  and  N_10
REMARK    7  A    between atoms: C_18  and  C_20
REMARK                            x       y       z     vdW  Elec       q    Type
REMARK                         _______ _______ _______ _____ _____    ______ ____
ROOT
ATOM      1  N   UNL     1      48.652   8.102  17.465  0.00  0.00    +0.000 N 
ATOM      2  C   UNL     1      48.862   7.009  18.320  0.00  0.00    +0.000 C 
ATOM      3  O   UNL     1      48.253   6.896  19.382  0.00  0.00    +0.000 OA
ENDROOT
BRANCH   2   4
ATOM      4  C   UNL     1      49.861   5.997  17.963  0.00  0.00    +0.000 A 
ATOM      5  C   UNL     1      51.221   6.120  18.194  0.00  0.00    +0.000 A 
ATOM      6  S   UNL     1      52.110   4.727  17.760  0.00  0.00    +0.000 S 
ATOM      7  C   UNL     1      50.688   3.875  17.381  0.00  0.00    +0.000 A 
ATOM      8  N   UNL     1      50.725   2.560  17.038  0.00  0.00    +0.000 NA
ATOM      9  C   UNL     1      49.561   2.032  16.848  0.00  0.00    +0.000 A 
ATOM     10  N   UNL     1      48.369   2.707  16.933  0.00  0.00    +0.000 N 
ATOM     11  C   UNL     1      48.293   4.068  17.141  0.00  0.00    +0.000 A 
ATOM     12  O   UNL     1      47.245   4.678  16.967  0.00  0.00    +0.000 OA
ATOM     13  C   UNL     1      49.563   4.673  17.486  0.00  0.00    +0.000 A 
ATOM     14  H   UNL     1      47.500   2.249  16.705  0.00  0.00    +0.000 HD
ENDBRANCH   2   4
BRANCH   1  16
ATOM     15  C   UNL     1      48.206  10.550  17.629  0.00  0.00    +0.000 C 
ATOM     16  C   UNL     1      47.729   9.139  17.953  0.00  0.00    +0.000 C 
ENDBRANCH   1  16
BRANCH   1  17
ATOM     17  C   UNL     1      49.337   8.268  16.170  0.00  0.00    +0.000 C 
BRANCH  17  18
ATOM     18  C   UNL     1      48.533   7.932  14.943  0.00  0.00    +0.000 A 
ATOM     19  C   UNL     1      47.771   8.920  14.300  0.00  0.00    +0.000 A 
ATOM     20  C   UNL     1      46.876   8.573  13.289  0.00  0.00    +0.000 A 
ATOM     21  C   UNL     1      46.739   7.236  12.902  0.00  0.00    +0.000 A 
ATOM     22  C   UNL     1      47.568   6.264  13.482  0.00  0.00    +0.000 A 
ATOM     23  C   UNL     1      48.464   6.610  14.492  0.00  0.00    +0.000 A 
BRANCH  21  24
ATOM     24  C   UNL     1      45.630   6.813  11.968  0.00  0.00    +0.000 C 
BRANCH  24  25
ATOM     25  N   UNL     1      45.256   5.388  12.038  0.00  0.00    +0.000 NA
ATOM     26  C   UNL     1      44.053   5.206  12.866  0.00  0.00    +0.000 C 
ATOM     27  C   UNL     1      43.548   3.762  12.847  0.00  0.00    +0.000 C 
ATOM     28  C   UNL     1      43.285   3.297  11.422  0.00  0.00    +0.000 C 
ATOM     29  C   UNL     1      44.548   3.467  10.591  0.00  0.00    +0.000 C 
ATOM     30  C   UNL     1      45.056   4.904  10.660  0.00  0.00    +0.000 C 
ENDBRANCH  24  25
ENDBRANCH  21  24
ENDBRANCH  17  18
ENDBRANCH   1  17
TORSDOF 6
ENDMDL
MODEL 7
REMARK VINA RESULT:    -6.340      3.157      7.952
REMARK INTER + INTRA:          -9.686
REMARK INTER:                  -8.736
REMARK INTRA:                  -0.950
REMARK UNBOUND:                -1.122
REMARK  Name = 
REMARK  7 active torsions:
REMARK  status: ('A' for Active; 'I' for Inactive)
REMARK    1  A    between atoms: C_1  and  C_2
REMARK    2  A    between atoms: C_2  and  N_3
REMARK    3  A    between atoms: N_3  and  C_4
REMARK    4  A    between atoms: C_4  and  C_5
REMARK    5  A    between atoms: C_8  and  C_9
REMARK    6  A    between atoms: C_9  and  N_10
REMARK    7  A    between atoms: C_18  and  C_20
REMARK                            x       y       z     vdW  Elec       q    Type
REMARK                         _______ _______ _______ _____ _____    ______ ____
ROOT
ATOM      1  N   UNL     1      48.728   7.526  15.614  0.00  0.00    +0.000 N 
ATOM      2  C   UNL     1      48.461   7.051  16.907  0.00  0.00    +0.000 C 
ATOM      3  O   UNL     1      48.128   7.810  17.816  0.00  0.00    +0.000 OA
ENDROOT
BRANCH   2   4
ATOM      4  C   UNL     1      48.622   5.624  17.199  0.00  0.00    +0.000 A 
ATOM      5  C   UNL     1      47.606   4.686  17.124  0.00  0.00    +0.000 A 
ATOM      6  S   UNL     1      48.134   3.089  17.421  0.00  0.00    +0.000 S 
ATOM      7  C   UNL     1      49.755   3.590  17.524  0.00  0.00    +0.000 A 
ATOM      8  N   UNL     1      50.763   2.688  17.662  0.00  0.00    +0.000 NA
ATOM      9  C   UNL     1      51.945   3.213  17.654  0.00  0.00    +0.000 A 
ATOM     10  N   UNL     1      52.206   4.557  17.558  0.00  0.00    +0.000 N 
ATOM     11  C   UNL     1      51.214   5.514  17.557  0.00  0.00    +0.000 A 
ATOM     12  O   UNL     1      51.477   6.700  17.719  0.00  0.00    +0.000 OA
ATOM     13  C   UNL     1      49.879   4.964  17.434  0.00  0.00    +0.000 A 
ATOM     14  H   UNL     1      53.151   4.904  17.627  0.00  0.00    +0.000 HD
ENDBRANCH   2   4
BRANCH   1  16
ATOM     15  C   UNL     1      50.048   9.611  15.252  0.00  0.00    +0.000 C 
ATOM     16  C   UNL     1      48.670   8.985  15.434  0.00  0.00    +0.000 C 
ENDBRANCH   1  16
BRANCH   1  17
ATOM     17  C   UNL     1      49.105   6.653  14.487  0.00  0.00    +0.000 C 
BRANCH  17  18
ATOM     18  C   UNL     1      48.002   6.292  13.528  0.00  0.00    +0.000 A 
ATOM     19  C   UNL     1      47.674   7.151  12.467  0.00  0.00    +0.000 A 
ATOM     20  C   UNL     1      46.533   6.918  11.700  0.00  0.00    +0.000 A 
ATOM     21  C   UNL     1      45.713   5.820  11.978  0.00  0.00    +0.000 A 
ATOM     22  C   UNL     1      46.095   4.913  12.977  0.00  0.00    +0.000 A 
ATOM     23  C   UNL     1      47.235   5.144  13.744  0.00  0.00    +0.000 A 
BRANCH  21  24
ATOM     24  C   UNL     1      44.369   5.671  11.305  0.00  0.00    +0.000 C 
BRANCH  24  25
ATOM     25  N   UNL     1      44.342   4.758  10.146  0.00  0.00    +0.000 NA
ATOM     26  C   UNL     1      45.527   4.960   9.297  0.00  0.00    +0.000 C 
ATOM     27  C   UNL     1      45.611   3.936   8.164  0.00  0.00    +0.000 C 
ATOM     28  C   UNL     1      45.588   2.516   8.712  0.00  0.00    +0.000 C 
ATOM     29  C   UNL     1      44.343   2.320   9.564  0.00  0.00    +0.000 C 
ATOM     30  C   UNL     1      44.259   3.379  10.660  0.00  0.00    +0.000 C 
ENDBRANCH  24  25
ENDBRANCH  21  24
ENDBRANCH  17  18
ENDBRANCH   1  17
TORSDOF 6
ENDMDL
MODEL 8
REMARK VINA RESULT:    -5.903      3.701      8.775
REMARK INTER + INTRA:          -9.097
REMARK INTER:                  -7.898
REMARK INTRA:                  -1.198
REMARK UNBOUND:                -1.122
REMARK  Name = 
REMARK  7 active torsions:
REMARK  status: ('A' for Active; 'I' for Inactive)
REMARK    1  A    between atoms: C_1  and  C_2
REMARK    2  A    between atoms: C_2  and  N_3
REMARK    3  A    between atoms: N_3  and  C_4
REMARK    4  A    between atoms: C_4  and  C_5
REMARK    5  A    between atoms: C_8  and  C_9
REMARK    6  A    between atoms: C_9  and  N_10
REMARK    7  A    between atoms: C_18  and  C_20
REMARK                            x       y       z     vdW  Elec       q    Type
REMARK                         _______ _______ _______ _____ _____    ______ ____
ROOT
ATOM      1  N   UNL     1      48.610   6.351  17.809  0.00  0.00    +0.000 N 
ATOM      2  C   UNL     1      48.818   5.284  18.697  0.00  0.00    +0.000 C 
ATOM      3  O   UNL     1      48.273   5.249  19.799  0.00  0.00    +0.000 OA
ENDROOT
BRANCH   2   4
ATOM      4  C   UNL     1      49.738   4.206  18.326  0.00  0.00    +0.000 A 
ATOM      5  C   UNL     1      49.362   3.034  17.689  0.00  0.00    +0.000 A 
ATOM      6  S   UNL     1      50.680   2.022  17.298  0.00  0.00    +0.000 S 
ATOM      7  C   UNL     1      51.798   3.180  17.845  0.00  0.00    +0.000 A 
ATOM      8  N   UNL     1      53.137   2.992  17.698  0.00  0.00    +0.000 NA
ATOM      9  C   UNL     1      53.856   3.989  18.097  0.00  0.00    +0.000 A 
ATOM     10  N   UNL     1      53.362   5.138  18.661  0.00  0.00    +0.000 N 
ATOM     11  C   UNL     1      52.026   5.313  18.957  0.00  0.00    +0.000 A 
ATOM     12  O   UNL     1      51.650   6.230  19.677  0.00  0.00    +0.000 OA
ATOM     13  C   UNL     1      51.173   4.277  18.410  0.00  0.00    +0.000 A 
ATOM     14  H   UNL     1      53.985   5.849  19.013  0.00  0.00    +0.000 HD
ENDBRANCH   2   4
BRANCH   1  16
ATOM     15  C   UNL     1      48.418   8.821  18.089  0.00  0.00    +0.000 C 
ATOM     16  C   UNL     1      47.775   7.456  18.306  0.00  0.00    +0.000 C 
ENDBRANCH   1  16
BRANCH   1  17
ATOM     17  C   UNL     1      49.220   6.425  16.468  0.00  0.00    +0.000 C 
BRANCH  17  18
ATOM     18  C   UNL     1      48.332   6.052  15.312  0.00  0.00    +0.000 A 
ATOM     19  C   UNL     1      48.206   6.910  14.207  0.00  0.00    +0.000 A 
ATOM     20  C   UNL     1      47.240   6.664  13.232  0.00  0.00    +0.000 A 
ATOM     21  C   UNL     1      46.397   5.554  13.343  0.00  0.00    +0.000 A 
ATOM     22  C   UNL     1      46.588   4.649  14.398  0.00  0.00    +0.000 A 
ATOM     23  C   UNL     1      47.553   4.893  15.373  0.00  0.00    +0.000 A 
BRANCH  21  24
ATOM     24  C   UNL     1      45.213   5.388  12.420  0.00  0.00    +0.000 C 
BRANCH  24  25
ATOM     25  N   UNL     1      45.448   4.534  11.241  0.00  0.00    +0.000 NA
ATOM     26  C   UNL     1      44.380   3.529  11.105  0.00  0.00    +0.000 C 
ATOM     27  C   UNL     1      44.508   2.717   9.816  0.00  0.00    +0.000 C 
ATOM     28  C   UNL     1      44.533   3.630   8.598  0.00  0.00    +0.000 C 
ATOM     29  C   UNL     1      45.659   4.642   8.745  0.00  0.00    +0.000 C 
ATOM     30  C   UNL     1      45.534   5.410  10.058  0.00  0.00    +0.000 C 
ENDBRANCH  24  25
ENDBRANCH  21  24
ENDBRANCH  17  18
ENDBRANCH   1  17
TORSDOF 6
ENDMDL
MODEL 9
REMARK VINA RESULT:    -5.837      3.909      7.977
REMARK INTER + INTRA:          -9.007
REMARK INTER:                  -7.960
REMARK INTRA:                  -1.047
REMARK UNBOUND:                -1.122
REMARK  Name = 
REMARK  7 active torsions:
REMARK  status: ('A' for Active; 'I' for Inactive)
REMARK    1  A    between atoms: C_1  and  C_2
REMARK    2  A    between atoms: C_2  and  N_3
REMARK    3  A    between atoms: N_3  and  C_4
REMARK    4  A    between atoms: C_4  and  C_5
REMARK    5  A    between atoms: C_8  and  C_9
REMARK    6  A    between atoms: C_9  and  N_10
REMARK    7  A    between atoms: C_18  and  C_20
REMARK                            x       y       z     vdW  Elec       q    Type
REMARK                         _______ _______ _______ _____ _____    ______ ____
ROOT
ATOM      1  N   UNL     1      48.756   8.535  13.884  0.00  0.00    +0.000 N 
ATOM      2  C   UNL     1      48.832   9.929  13.737  0.00  0.00    +0.000 C 
ATOM      3  O   UNL     1      48.927  10.675  14.710  0.00  0.00    +0.000 OA
ENDROOT
BRANCH   2   4
ATOM      4  C   UNL     1      48.753  10.518  12.396  0.00  0.00    +0.000 A 
ATOM      5  C   UNL     1      47.621  11.113  11.865  0.00  0.00    +0.000 A 
ATOM      6  S   UNL     1      47.878  11.797  10.321  0.00  0.00    +0.000 S 
ATOM      7  C   UNL     1      49.538  11.437  10.380  0.00  0.00    +0.000 A 
ATOM      8  N   UNL     1      50.385  11.853   9.401  0.00  0.00    +0.000 NA
ATOM      9  C   UNL     1      51.626  11.565   9.620  0.00  0.00    +0.000 A 
ATOM     10  N   UNL     1      52.090  10.868  10.707  0.00  0.00    +0.000 N 
ATOM     11  C   UNL     1      51.254  10.308  11.651  0.00  0.00    +0.000 A 
ATOM     12  O   UNL     1      51.672   9.492  12.463  0.00  0.00    +0.000 OA
ATOM     13  C   UNL     1      49.871  10.715  11.513  0.00  0.00    +0.000 A 
ATOM     14  H   UNL     1      53.065  10.618  10.781  0.00  0.00    +0.000 HD
ENDBRANCH   2   4
BRANCH   1  16
ATOM     15  C   UNL     1      49.703   6.897  15.509  0.00  0.00    +0.000 C 
ATOM     16  C   UNL     1      48.712   8.030  15.265  0.00  0.00    +0.000 C 
ENDBRANCH   1  16
BRANCH   1  17
ATOM     17  C   UNL     1      48.668   7.600  12.747  0.00  0.00    +0.000 C 
BRANCH  17  18
ATOM     18  C   UNL     1      47.319   6.979  12.500  0.00  0.00    +0.000 A 
ATOM     19  C   UNL     1      47.068   5.651  12.878  0.00  0.00    +0.000 A 
ATOM     20  C   UNL     1      45.895   5.014  12.476  0.00  0.00    +0.000 A 
ATOM     21  C   UNL     1      44.955   5.700  11.700  0.00  0.00    +0.000 A 
ATOM     22  C   UNL     1      45.166   7.054  11.403  0.00  0.00    +0.000 A 
ATOM     23  C   UNL     1      46.338   7.692  11.805  0.00  0.00    +0.000 A 
BRANCH  21  24
ATOM     24  C   UNL     1      43.788   4.970  11.078  0.00  0.00    +0.000 C 
BRANCH  24  25
ATOM     25  N   UNL     1      44.092   4.241   9.833  0.00  0.00    +0.000 NA
ATOM     26  C   UNL     1      45.338   4.740   9.228  0.00  0.00    +0.000 C 
ATOM     27  C   UNL     1      45.766   3.915   8.014  0.00  0.00    +0.000 C 
ATOM     28  C   UNL     1      45.907   2.444   8.379  0.00  0.00    +0.000 C 
ATOM     29  C   UNL     1      44.601   1.941   8.976  0.00  0.00    +0.000 C 
ATOM     30  C   UNL     1      44.173   2.805  10.158  0.00  0.00    +0.000 C 
ENDBRANCH  24  25
ENDBRANCH  21  24
ENDBRANCH  17  18
ENDBRANCH   1  17
TORSDOF 6
ENDMDL
