MODEL 1
REMARK VINA RESULT:    -8.119      0.000      0.000
REMARK INTER + INTRA:         -11.254
REMARK INTER:                 -10.493
REMARK INTRA:                  -0.761
REMARK UNBOUND:                -0.761
REMARK  Name = 
REMARK  6 active torsions:
REMARK  status: ('A' for Active; 'I' for Inactive)
REMARK    1  A    between atoms: C_1  and  O_2
REMARK    2  A    between atoms: O_2  and  C_3
REMARK    3  A    between atoms: C_6  and  N_7
REMARK    4  A    between atoms: N_7  and  C_8
REMARK    5  A    between atoms: C_8  and  C_9
REMARK    6  A    between atoms: C_13  and  C_14
REMARK                            x       y       z     vdW  Elec       q    Type
REMARK                         _______ _______ _______ _____ _____    ______ ____
ROOT
ATOM      1  C   UNL     1      43.887   4.920  11.205  0.00  0.00    +0.000 C 
ATOM      2  C   UNL     1      42.855   3.945  11.743  0.00  0.00    +0.000 C 
ATOM      3  C   UNL     1      42.591   5.409  11.845  0.00  0.00    +0.000 C 
ENDROOT
BRANCH   1   4
ATOM      4  C   UNL     1      45.140   5.245  12.008  0.00  0.00    +0.000 A 
ATOM      5  C   UNL     1      45.672   4.325  12.928  0.00  0.00    +0.000 A 
ATOM      6  C   UNL     1      46.881   4.569  13.576  0.00  0.00    +0.000 A 
ATOM      7  C   UNL     1      47.591   5.738  13.305  0.00  0.00    +0.000 A 
ATOM      8  C   UNL     1      47.101   6.693  12.399  0.00  0.00    +0.000 A 
ATOM      9  C   UNL     1      45.854   6.437  11.800  0.00  0.00    +0.000 A 
BRANCH   8  10
ATOM     10  C   UNL     1      47.899   7.874  12.001  0.00  0.00    +0.000 A 
ATOM     11  C   UNL     1      47.341   9.161  12.023  0.00  0.00    +0.000 A 
ATOM     12  C   UNL     1      48.102  10.294  11.731  0.00  0.00    +0.000 A 
ATOM     13  C   UNL     1      49.450  10.163  11.415  0.00  0.00    +0.000 A 
ATOM     14  C   UNL     1      50.031   8.898  11.378  0.00  0.00    +0.000 A 
ATOM     15  C   UNL     1      49.261   7.766  11.658  0.00  0.00    +0.000 A 
ENDBRANCH   8  10
ENDBRANCH   1   4
BRANCH   1  16
ATOM     16  N   UNL     1      44.057   5.063   9.747  0.00  0.00    +0.000 N 
ATOM     17  H   UNL     1      43.196   5.192   9.226  0.00  0.00    +0.000 HD
BRANCH  16  21
ATOM     18  C   UNL     1      46.397   2.305   7.759  0.00  0.00    +0.000 A 
ATOM     19  C   UNL     1      46.509   3.656   7.468  0.00  0.00    +0.000 A 
ATOM     20  N   UNL     1      45.769   4.611   8.095  0.00  0.00    +0.000 NA
ATOM     21  C   UNL     1      44.910   4.175   9.044  0.00  0.00    +0.000 A 
ATOM     22  C   UNL     1      44.817   2.806   9.319  0.00  0.00    +0.000 A 
ATOM     23  N   UNL     1      45.553   1.847   8.705  0.00  0.00    +0.000 NA
BRANCH  18  25
ATOM     24  C   UNL     1      48.017   2.073   6.096  0.00  0.00    +0.000 C 
ATOM     25  O   UNL     1      47.176   1.418   7.043  0.00  0.00    +0.000 OA
ENDBRANCH  18  25
ENDBRANCH  16  21
ENDBRANCH   1  16
TORSDOF 5
ENDMDL
MODEL 2
REMARK VINA RESULT:    -8.085      1.539      3.399
REMARK INTER + INTRA:         -11.209
REMARK INTER:                 -10.521
REMARK INTRA:                  -0.688
REMARK UNBOUND:                -0.761
REMARK  Name = 
REMARK  6 active torsions:
REMARK  status: ('A' for Active; 'I' for Inactive)
REMARK    1  A    between atoms: C_1  and  O_2
REMARK    2  A    between atoms: O_2  and  C_3
REMARK    3  A    between atoms: C_6  and  N_7
REMARK    4  A    between atoms: N_7  and  C_8
REMARK    5  A    between atoms: C_8  and  C_9
REMARK    6  A    between atoms: C_13  and  C_14
REMARK                            x       y       z     vdW  Elec       q    Type
REMARK                         _______ _______ _______ _____ _____    ______ ____
ROOT
ATOM      1  C   UNL     1      44.009   4.676  11.147  0.00  0.00    +0.000 C 
ATOM      2  C   UNL     1      43.245   3.689  12.012  0.00  0.00    +0.000 C 
ATOM      3  C   UNL     1      42.771   5.101  11.931  0.00  0.00    +0.000 C 
ENDROOT
BRANCH   1   4
ATOM      4  C   UNL     1      45.307   5.300  11.644  0.00  0.00    +0.000 A 
ATOM      5  C   UNL     1      45.908   6.369  10.958  0.00  0.00    +0.000 A 
ATOM      6  C   UNL     1      47.029   7.018  11.471  0.00  0.00    +0.000 A 
ATOM      7  C   UNL     1      47.564   6.617  12.695  0.00  0.00    +0.000 A 
ATOM      8  C   UNL     1      47.004   5.552  13.419  0.00  0.00    +0.000 A 
ATOM      9  C   UNL     1      45.904   4.887  12.847  0.00  0.00    +0.000 A 
BRANCH   8  10
ATOM     10  C   UNL     1      47.475   5.197  14.777  0.00  0.00    +0.000 A 
ATOM     11  C   UNL     1      47.115   3.976  15.367  0.00  0.00    +0.000 A 
ATOM     12  C   UNL     1      47.616   3.588  16.611  0.00  0.00    +0.000 A 
ATOM     13  C   UNL     1      48.501   4.417  17.292  0.00  0.00    +0.000 A 
ATOM     14  C   UNL     1      48.871   5.638  16.735  0.00  0.00    +0.000 A 
ATOM     15  C   UNL     1      48.356   6.027  15.496  0.00  0.00    +0.000 A 
ENDBRANCH   8  10
ENDBRANCH   1   4
BRANCH   1  16
ATOM     16  N   UNL     1      43.919   4.572   9.678  0.00  0.00    +0.000 N 
ATOM     17  H   UNL     1      42.989   4.385   9.319  0.00  0.00    +0.000 HD
BRANCH  16  21
ATOM     18  C   UNL     1      46.568   2.133   7.662  0.00  0.00    +0.000 A 
ATOM     19  C   UNL     1      46.492   3.484   7.358  0.00  0.00    +0.000 A 
ATOM     20  N   UNL     1      45.643   4.337   7.994  0.00  0.00    +0.000 NA
ATOM     21  C   UNL     1      44.869   3.800   8.965  0.00  0.00    +0.000 A 
ATOM     22  C   UNL     1      44.967   2.433   9.252  0.00  0.00    +0.000 A 
ATOM     23  N   UNL     1      45.813   1.576   8.629  0.00  0.00    +0.000 NA
BRANCH  18  25
ATOM     24  C   UNL     1      47.996   2.044   5.819  0.00  0.00    +0.000 C 
ATOM     25  O   UNL     1      47.445   1.351   6.936  0.00  0.00    +0.000 OA
ENDBRANCH  18  25
ENDBRANCH  16  21
ENDBRANCH   1  16
TORSDOF 5
ENDMDL
MODEL 3
REMARK VINA RESULT:    -7.623      1.369      1.923
REMARK INTER + INTRA:         -10.613
REMARK INTER:                 -10.011
REMARK INTRA:                  -0.602
REMARK UNBOUND:                -0.761
REMARK  Name = 
REMARK  6 active torsions:
REMARK  status: ('A' for Active; 'I' for Inactive)
REMARK    1  A    between atoms: C_1  and  O_2
REMARK    2  A    between atoms: O_2  and  C_3
REMARK    3  A    between atoms: C_6  and  N_7
REMARK    4  A    between atoms: N_7  and  C_8
REMARK    5  A    between atoms: C_8  and  C_9
REMARK    6  A    between atoms: C_13  and  C_14
REMARK                            x       y       z     vdW  Elec       q    Type
REMARK                         _______ _______ _______ _____ _____    ______ ____
ROOT
ATOM      1  C   UNL     1      43.787   5.101  11.329  0.00  0.00    +0.000 C 
ATOM      2  C   UNL     1      43.190   3.988  12.172  0.00  0.00    +0.000 C 
ATOM      3  C   UNL     1      42.475   5.293  12.084  0.00  0.00    +0.000 C 
ENDROOT
BRANCH   1   4
ATOM      4  C   UNL     1      44.941   5.942  11.858  0.00  0.00    +0.000 A 
ATOM      5  C   UNL     1      46.113   5.341  12.348  0.00  0.00    +0.000 A 
ATOM      6  C   UNL     1      47.215   6.106  12.723  0.00  0.00    +0.000 A 
ATOM      7  C   UNL     1      47.170   7.495  12.603  0.00  0.00    +0.000 A 
ATOM      8  C   UNL     1      46.021   8.146  12.125  0.00  0.00    +0.000 A 
ATOM      9  C   UNL     1      44.909   7.346  11.802  0.00  0.00    +0.000 A 
BRANCH   8  10
ATOM     10  C   UNL     1      45.999   9.604  11.867  0.00  0.00    +0.000 A 
ATOM     11  C   UNL     1      44.788  10.277  11.647  0.00  0.00    +0.000 A 
ATOM     12  C   UNL     1      44.739  11.663  11.485  0.00  0.00    +0.000 A 
ATOM     13  C   UNL     1      45.911  12.410  11.547  0.00  0.00    +0.000 A 
ATOM     14  C   UNL     1      47.128  11.769  11.758  0.00  0.00    +0.000 A 
ATOM     15  C   UNL     1      47.172  10.381  11.906  0.00  0.00    +0.000 A 
ENDBRANCH   8  10
ENDBRANCH   1   4
BRANCH   1  16
ATOM     16  N   UNL     1      43.751   4.993   9.858  0.00  0.00    +0.000 N 
ATOM     17  H   UNL     1      42.823   4.895   9.458  0.00  0.00    +0.000 HD
BRANCH  16  21
ATOM     18  C   UNL     1      46.227   2.289   7.963  0.00  0.00    +0.000 A 
ATOM     19  C   UNL     1      46.331   3.644   7.688  0.00  0.00    +0.000 A 
ATOM     20  N   UNL     1      45.547   4.582   8.287  0.00  0.00    +0.000 NA
ATOM     21  C   UNL     1      44.651   4.125   9.190  0.00  0.00    +0.000 A 
ATOM     22  C   UNL     1      44.567   2.752   9.450  0.00  0.00    +0.000 A 
ATOM     23  N   UNL     1      45.347   1.810   8.864  0.00  0.00    +0.000 NA
BRANCH  18  25
ATOM     24  C   UNL     1      47.939   2.097   6.389  0.00  0.00    +0.000 C 
ATOM     25  O   UNL     1      47.054   1.421   7.279  0.00  0.00    +0.000 OA
ENDBRANCH  18  25
ENDBRANCH  16  21
ENDBRANCH   1  16
TORSDOF 5
ENDMDL
MODEL 4
REMARK VINA RESULT:    -7.202      1.399      2.295
REMARK INTER + INTRA:         -10.068
REMARK INTER:                  -9.304
REMARK INTRA:                  -0.764
REMARK UNBOUND:                -0.761
REMARK  Name = 
REMARK  6 active torsions:
REMARK  status: ('A' for Active; 'I' for Inactive)
REMARK    1  A    between atoms: C_1  and  O_2
REMARK    2  A    between atoms: O_2  and  C_3
REMARK    3  A    between atoms: C_6  and  N_7
REMARK    4  A    between atoms: N_7  and  C_8
REMARK    5  A    between atoms: C_8  and  C_9
REMARK    6  A    between atoms: C_13  and  C_14
REMARK                            x       y       z     vdW  Elec       q    Type
REMARK                         _______ _______ _______ _____ _____    ______ ____
ROOT
ATOM      1  C   UNL     1      44.446   3.969  11.210  0.00  0.00    +0.000 C 
ATOM      2  C   UNL     1      44.994   2.915  12.156  0.00  0.00    +0.000 C 
ATOM      3  C   UNL     1      43.620   3.447  12.382  0.00  0.00    +0.000 C 
ENDROOT
BRANCH   1   4
ATOM      4  C   UNL     1      44.868   5.427  11.345  0.00  0.00    +0.000 A 
ATOM      5  C   UNL     1      43.923   6.465  11.284  0.00  0.00    +0.000 A 
ATOM      6  C   UNL     1      44.287   7.788  11.522  0.00  0.00    +0.000 A 
ATOM      7  C   UNL     1      45.609   8.098  11.842  0.00  0.00    +0.000 A 
ATOM      8  C   UNL     1      46.594   7.099  11.911  0.00  0.00    +0.000 A 
ATOM      9  C   UNL     1      46.201   5.781  11.615  0.00  0.00    +0.000 A 
BRANCH   8  10
ATOM     10  C   UNL     1      47.969   7.388  12.375  0.00  0.00    +0.000 A 
ATOM     11  C   UNL     1      48.966   7.785  11.471  0.00  0.00    +0.000 A 
ATOM     12  C   UNL     1      50.245   8.141  11.901  0.00  0.00    +0.000 A 
ATOM     13  C   UNL     1      50.554   8.115  13.257  0.00  0.00    +0.000 A 
ATOM     14  C   UNL     1      49.588   7.720  14.178  0.00  0.00    +0.000 A 
ATOM     15  C   UNL     1      48.313   7.351  13.740  0.00  0.00    +0.000 A 
ENDBRANCH   8  10
ENDBRANCH   1   4
BRANCH   1  16
ATOM     16  N   UNL     1      44.060   3.582   9.840  0.00  0.00    +0.000 N 
ATOM     17  H   UNL     1      43.192   3.060   9.772  0.00  0.00    +0.000 HD
BRANCH  16  21
ATOM     18  C   UNL     1      46.966   2.151   7.282  0.00  0.00    +0.000 A 
ATOM     19  C   UNL     1      46.248   1.277   8.083  0.00  0.00    +0.000 A 
ATOM     20  N   UNL     1      45.274   1.690   8.940  0.00  0.00    +0.000 NA
ATOM     21  C   UNL     1      45.024   3.018   8.967  0.00  0.00    +0.000 A 
ATOM     22  C   UNL     1      45.763   3.879   8.147  0.00  0.00    +0.000 A 
ATOM     23  N   UNL     1      46.731   3.478   7.286  0.00  0.00    +0.000 NA
BRANCH  18  25
ATOM     24  C   UNL     1      48.046   2.312   5.220  0.00  0.00    +0.000 C 
ATOM     25  O   UNL     1      47.951   1.629   6.468  0.00  0.00    +0.000 OA
ENDBRANCH  18  25
ENDBRANCH  16  21
ENDBRANCH   1  16
TORSDOF 5
ENDMDL
MODEL 5
REMARK VINA RESULT:    -7.147      4.230      7.551
REMARK INTER + INTRA:          -9.997
REMARK INTER:                  -9.335
REMARK INTRA:                  -0.662
REMARK UNBOUND:                -0.761
REMARK  Name = 
REMARK  6 active torsions:
REMARK  status: ('A' for Active; 'I' for Inactive)
REMARK    1  A    between atoms: C_1  and  O_2
REMARK    2  A    between atoms: O_2  and  C_3
REMARK    3  A    between atoms: C_6  and  N_7
REMARK    4  A    between atoms: N_7  and  C_8
REMARK    5  A    between atoms: C_8  and  C_9
REMARK    6  A    between atoms: C_13  and  C_14
REMARK                            x       y       z     vdW  Elec       q    Type
REMARK                         _______ _______ _______ _____ _____    ______ ____
ROOT
ATOM      1  C   UNL     1      45.214   7.821  11.638  0.00  0.00    +0.000 C 
ATOM      2  C   UNL     1      45.555   8.260  13.051  0.00  0.00    +0.000 C 
ATOM      3  C   UNL     1      46.659   7.875  12.126  0.00  0.00    +0.000 C 
ENDROOT
BRANCH   1   4
ATOM      4  C   UNL     1      44.700   6.413  11.366  0.00  0.00    +0.000 A 
ATOM      5  C   UNL     1      43.505   5.951  11.944  0.00  0.00    +0.000 A 
ATOM      6  C   UNL     1      42.971   4.710  11.606  0.00  0.00    +0.000 A 
ATOM      7  C   UNL     1      43.619   3.907  10.668  0.00  0.00    +0.000 A 
ATOM      8  C   UNL     1      44.819   4.318  10.064  0.00  0.00    +0.000 A 
ATOM      9  C   UNL     1      45.356   5.556  10.465  0.00  0.00    +0.000 A 
BRANCH   8  10
ATOM     10  C   UNL     1      45.451   3.543   8.973  0.00  0.00    +0.000 A 
ATOM     11  C   UNL     1      46.073   4.191   7.896  0.00  0.00    +0.000 A 
ATOM     12  C   UNL     1      46.746   3.479   6.902  0.00  0.00    +0.000 A 
ATOM     13  C   UNL     1      46.817   2.092   6.970  0.00  0.00    +0.000 A 
ATOM     14  C   UNL     1      46.204   1.419   8.023  0.00  0.00    +0.000 A 
ATOM     15  C   UNL     1      45.520   2.137   9.008  0.00  0.00    +0.000 A 
ENDBRANCH   8  10
ENDBRANCH   1   4
BRANCH   1  16
ATOM     16  N   UNL     1      44.758   8.824  10.658  0.00  0.00    +0.000 N 
ATOM     17  H   UNL     1      45.493   9.399  10.259  0.00  0.00    +0.000 HD
BRANCH  16  21
ATOM     18  C   UNL     1      41.608  11.355  11.499  0.00  0.00    +0.000 A 
ATOM     19  C   UNL     1      41.371  10.100  10.959  0.00  0.00    +0.000 A 
ATOM     20  N   UNL     1      42.369   9.221  10.667  0.00  0.00    +0.000 NA
ATOM     21  C   UNL     1      43.627   9.630  10.946  0.00  0.00    +0.000 A 
ATOM     22  C   UNL     1      43.838  10.902  11.492  0.00  0.00    +0.000 A 
ATOM     23  N   UNL     1      42.852  11.782  11.792  0.00  0.00    +0.000 NA
BRANCH  18  25
ATOM     24  C   UNL     1      39.394  11.465  12.228  0.00  0.00    +0.000 C 
ATOM     25  O   UNL     1      40.524  12.178  11.732  0.00  0.00    +0.000 OA
ENDBRANCH  18  25
ENDBRANCH  16  21
ENDBRANCH   1  16
TORSDOF 5
ENDMDL
MODEL 6
REMARK VINA RESULT:    -6.971      3.058      6.527
REMARK INTER + INTRA:          -9.769
REMARK INTER:                  -8.948
REMARK INTRA:                  -0.821
REMARK UNBOUND:                -0.761
REMARK  Name = 
REMARK  6 active torsions:
REMARK  status: ('A' for Active; 'I' for Inactive)
REMARK    1  A    between atoms: C_1  and  O_2
REMARK    2  A    between atoms: O_2  and  C_3
REMARK    3  A    between atoms: C_6  and  N_7
REMARK    4  A    between atoms: N_7  and  C_8
REMARK    5  A    between atoms: C_8  and  C_9
REMARK    6  A    between atoms: C_13  and  C_14
REMARK                            x       y       z     vdW  Elec       q    Type
REMARK                         _______ _______ _______ _____ _____    ______ ____
ROOT
ATOM      1  C   UNL     1      44.348   6.411  11.795  0.00  0.00    +0.000 C 
ATOM      2  C   UNL     1      44.420   7.519  10.759  0.00  0.00    +0.000 C 
ATOM      3  C   UNL     1      43.110   7.212  11.402  0.00  0.00    +0.000 C 
ENDROOT
BRANCH   1   4
ATOM      4  C   UNL     1      44.307   4.949  11.366  0.00  0.00    +0.000 A 
ATOM      5  C   UNL     1      43.426   4.039  11.973  0.00  0.00    +0.000 A 
ATOM      6  C   UNL     1      43.302   2.732  11.506  0.00  0.00    +0.000 A 
ATOM      7  C   UNL     1      44.052   2.313  10.407  0.00  0.00    +0.000 A 
ATOM      8  C   UNL     1      44.951   3.182   9.767  0.00  0.00    +0.000 A 
ATOM      9  C   UNL     1      45.087   4.479  10.296  0.00  0.00    +0.000 A 
BRANCH   8  10
ATOM     10  C   UNL     1      45.657   2.799   8.524  0.00  0.00    +0.000 A 
ATOM     11  C   UNL     1      45.928   3.749   7.528  0.00  0.00    +0.000 A 
ATOM     12  C   UNL     1      46.665   3.426   6.388  0.00  0.00    +0.000 A 
ATOM     13  C   UNL     1      47.156   2.135   6.222  0.00  0.00    +0.000 A 
ATOM     14  C   UNL     1      46.897   1.168   7.189  0.00  0.00    +0.000 A 
ATOM     15  C   UNL     1      46.147   1.494   8.322  0.00  0.00    +0.000 A 
ENDBRANCH   8  10
ENDBRANCH   1   4
BRANCH   1  16
ATOM     16  N   UNL     1      44.941   6.627  13.128  0.00  0.00    +0.000 N 
ATOM     17  H   UNL     1      44.389   7.205  13.753  0.00  0.00    +0.000 HD
BRANCH  16  21
ATOM     18  C   UNL     1      48.982   7.429  13.377  0.00  0.00    +0.000 A 
ATOM     19  C   UNL     1      48.060   8.464  13.408  0.00  0.00    +0.000 A 
ATOM     20  N   UNL     1      46.717   8.260  13.336  0.00  0.00    +0.000 NA
ATOM     21  C   UNL     1      46.311   6.973  13.245  0.00  0.00    +0.000 A 
ATOM     22  C   UNL     1      47.262   5.946  13.217  0.00  0.00    +0.000 A 
ATOM     23  N   UNL     1      48.602   6.138  13.294  0.00  0.00    +0.000 NA
BRANCH  18  25
ATOM     24  C   UNL     1      50.544   9.143  13.631  0.00  0.00    +0.000 C 
ATOM     25  O   UNL     1      50.324   7.749  13.429  0.00  0.00    +0.000 OA
ENDBRANCH  18  25
ENDBRANCH  16  21
ENDBRANCH   1  16
TORSDOF 5
ENDMDL
MODEL 7
REMARK VINA RESULT:    -6.716      3.444      6.952
REMARK INTER + INTRA:          -9.440
REMARK INTER:                  -9.501
REMARK INTRA:                   0.061
REMARK UNBOUND:                -0.761
REMARK  Name = 
REMARK  6 active torsions:
REMARK  status: ('A' for Active; 'I' for Inactive)
REMARK    1  A    between atoms: C_1  and  O_2
REMARK    2  A    between atoms: O_2  and  C_3
REMARK    3  A    between atoms: C_6  and  N_7
REMARK    4  A    between atoms: N_7  and  C_8
REMARK    5  A    between atoms: C_8  and  C_9
REMARK    6  A    between atoms: C_13  and  C_14
REMARK                            x       y       z     vdW  Elec       q    Type
REMARK                         _______ _______ _______ _____ _____    ______ ____
ROOT
ATOM      1  C   UNL     1      46.178   7.325  12.029  0.00  0.00    +0.000 C 
ATOM      2  C   UNL     1      45.999   8.785  11.650  0.00  0.00    +0.000 C 
ATOM      3  C   UNL     1      45.429   8.296  12.938  0.00  0.00    +0.000 C 
ENDROOT
BRANCH   1   4
ATOM      4  C   UNL     1      45.298   6.248  11.407  0.00  0.00    +0.000 A 
ATOM      5  C   UNL     1      43.911   6.227  11.626  0.00  0.00    +0.000 A 
ATOM      6  C   UNL     1      43.088   5.316  10.966  0.00  0.00    +0.000 A 
ATOM      7  C   UNL     1      43.641   4.413  10.059  0.00  0.00    +0.000 A 
ATOM      8  C   UNL     1      45.022   4.389   9.806  0.00  0.00    +0.000 A 
ATOM      9  C   UNL     1      45.829   5.289  10.527  0.00  0.00    +0.000 A 
BRANCH   8  10
ATOM     10  C   UNL     1      45.610   3.530   8.754  0.00  0.00    +0.000 A 
ATOM     11  C   UNL     1      46.228   4.093   7.628  0.00  0.00    +0.000 A 
ATOM     12  C   UNL     1      46.861   3.302   6.667  0.00  0.00    +0.000 A 
ATOM     13  C   UNL     1      46.894   1.920   6.819  0.00  0.00    +0.000 A 
ATOM     14  C   UNL     1      46.283   1.331   7.922  0.00  0.00    +0.000 A 
ATOM     15  C   UNL     1      45.640   2.127   8.874  0.00  0.00    +0.000 A 
ENDBRANCH   8  10
ENDBRANCH   1   4
BRANCH   1  16
ATOM     16  N   UNL     1      47.508   6.844  12.447  0.00  0.00    +0.000 N 
ATOM     17  H   UNL     1      48.045   6.383  11.719  0.00  0.00    +0.000 HD
BRANCH  16  21
ATOM     18  C   UNL     1      48.023   4.971  16.089  0.00  0.00    +0.000 A 
ATOM     19  C   UNL     1      47.120   4.467  15.165  0.00  0.00    +0.000 A 
ATOM     20  N   UNL     1      46.913   5.038  13.946  0.00  0.00    +0.000 NA
ATOM     21  C   UNL     1      47.653   6.135  13.666  0.00  0.00    +0.000 A 
ATOM     22  C   UNL     1      48.558   6.622  14.616  0.00  0.00    +0.000 A 
ATOM     23  N   UNL     1      48.776   6.058  15.830  0.00  0.00    +0.000 NA
BRANCH  18  25
ATOM     24  C   UNL     1      49.355   4.638  17.975  0.00  0.00    +0.000 C 
ATOM     25  O   UNL     1      48.135   4.329  17.306  0.00  0.00    +0.000 OA
ENDBRANCH  18  25
ENDBRANCH  16  21
ENDBRANCH   1  16
TORSDOF 5
ENDMDL
MODEL 8
REMARK VINA RESULT:    -6.678      4.117      7.298
REMARK INTER + INTRA:          -9.391
REMARK INTER:                  -8.589
REMARK INTRA:                  -0.801
REMARK UNBOUND:                -0.761
REMARK  Name = 
REMARK  6 active torsions:
REMARK  status: ('A' for Active; 'I' for Inactive)
REMARK    1  A    between atoms: C_1  and  O_2
REMARK    2  A    between atoms: O_2  and  C_3
REMARK    3  A    between atoms: C_6  and  N_7
REMARK    4  A    between atoms: N_7  and  C_8
REMARK    5  A    between atoms: C_8  and  C_9
REMARK    6  A    between atoms: C_13  and  C_14
REMARK                            x       y       z     vdW  Elec       q    Type
REMARK                         _______ _______ _______ _____ _____    ______ ____
ROOT
ATOM      1  C   UNL     1      48.214   7.411  13.474  0.00  0.00    +0.000 C 
ATOM      2  C   UNL     1      49.503   7.003  12.781  0.00  0.00    +0.000 C 
ATOM      3  C   UNL     1      49.146   8.449  12.855  0.00  0.00    +0.000 C 
ENDROOT
BRANCH   1   4
ATOM      4  C   UNL     1      46.874   7.274  12.763  0.00  0.00    +0.000 A 
ATOM      5  C   UNL     1      45.932   8.317  12.780  0.00  0.00    +0.000 A 
ATOM      6  C   UNL     1      44.757   8.241  12.035  0.00  0.00    +0.000 A 
ATOM      7  C   UNL     1      44.507   7.120  11.245  0.00  0.00    +0.000 A 
ATOM      8  C   UNL     1      45.412   6.048  11.196  0.00  0.00    +0.000 A 
ATOM      9  C   UNL     1      46.565   6.135  11.999  0.00  0.00    +0.000 A 
BRANCH   8  10
ATOM     10  C   UNL     1      45.229   4.911  10.266  0.00  0.00    +0.000 A 
ATOM     11  C   UNL     1      45.735   4.962   8.959  0.00  0.00    +0.000 A 
ATOM     12  C   UNL     1      45.645   3.869   8.095  0.00  0.00    +0.000 A 
ATOM     13  C   UNL     1      45.047   2.690   8.528  0.00  0.00    +0.000 A 
ATOM     14  C   UNL     1      44.529   2.611   9.818  0.00  0.00    +0.000 A 
ATOM     15  C   UNL     1      44.610   3.713  10.673  0.00  0.00    +0.000 A 
ENDBRANCH   8  10
ENDBRANCH   1   4
BRANCH   1  16
ATOM     16  N   UNL     1      48.124   7.324  14.944  0.00  0.00    +0.000 N 
ATOM     17  H   UNL     1      48.568   8.086  15.446  0.00  0.00    +0.000 HD
BRANCH  16  21
ATOM     18  C   UNL     1      49.066   3.871  16.998  0.00  0.00    +0.000 A 
ATOM     19  C   UNL     1      47.958   3.909  16.166  0.00  0.00    +0.000 A 
ATOM     20  N   UNL     1      47.602   5.016  15.459  0.00  0.00    +0.000 NA
ATOM     21  C   UNL     1      48.403   6.098  15.597  0.00  0.00    +0.000 A 
ATOM     22  C   UNL     1      49.516   6.032  16.444  0.00  0.00    +0.000 A 
ATOM     23  N   UNL     1      49.882   4.933  17.148  0.00  0.00    +0.000 NA
BRANCH  18  25
ATOM     24  C   UNL     1      50.524   2.069  17.266  0.00  0.00    +0.000 C 
ATOM     25  O   UNL     1      49.320   2.704  17.691  0.00  0.00    +0.000 OA
ENDBRANCH  18  25
ENDBRANCH  16  21
ENDBRANCH   1  16
TORSDOF 5
ENDMDL
MODEL 9
REMARK VINA RESULT:    -6.385      4.798      7.634
REMARK INTER + INTRA:          -9.013
REMARK INTER:                  -8.515
REMARK INTRA:                  -0.498
REMARK UNBOUND:                -0.761
REMARK  Name = 
REMARK  6 active torsions:
REMARK  status: ('A' for Active; 'I' for Inactive)
REMARK    1  A    between atoms: C_1  and  O_2
REMARK    2  A    between atoms: O_2  and  C_3
REMARK    3  A    between atoms: C_6  and  N_7
REMARK    4  A    between atoms: N_7  and  C_8
REMARK    5  A    between atoms: C_8  and  C_9
REMARK    6  A    between atoms: C_13  and  C_14
REMARK                            x       y       z     vdW  Elec       q    Type
REMARK                         _______ _______ _______ _____ _____    ______ ____
ROOT
ATOM      1  C   UNL     1      48.724   6.628  15.781  0.00  0.00    +0.000 C 
ATOM      2  C   UNL     1      50.098   7.133  16.186  0.00  0.00    +0.000 C 
ATOM      3  C   UNL     1      48.899   7.963  16.500  0.00  0.00    +0.000 C 
ENDROOT
BRANCH   1   4
ATOM      4  C   UNL     1      48.244   6.754  14.341  0.00  0.00    +0.000 A 
ATOM      5  C   UNL     1      49.008   7.434  13.377  0.00  0.00    +0.000 A 
ATOM      6  C   UNL     1      48.632   7.450  12.036  0.00  0.00    +0.000 A 
ATOM      7  C   UNL     1      47.484   6.770  11.629  0.00  0.00    +0.000 A 
ATOM      8  C   UNL     1      46.682   6.079  12.552  0.00  0.00    +0.000 A 
ATOM      9  C   UNL     1      47.065   6.125  13.905  0.00  0.00    +0.000 A 
BRANCH   8  10
ATOM     10  C   UNL     1      45.537   5.246  12.122  0.00  0.00    +0.000 A 
ATOM     11  C   UNL     1      44.747   4.568  13.063  0.00  0.00    +0.000 A 
ATOM     12  C   UNL     1      43.614   3.846  12.684  0.00  0.00    +0.000 A 
ATOM     13  C   UNL     1      43.241   3.792  11.345  0.00  0.00    +0.000 A 
ATOM     14  C   UNL     1      44.009   4.449  10.388  0.00  0.00    +0.000 A 
ATOM     15  C   UNL     1      45.149   5.159  10.771  0.00  0.00    +0.000 A 
ENDBRANCH   8  10
ENDBRANCH   1   4
BRANCH   1  16
ATOM     16  N   UNL     1      48.122   5.500  16.516  0.00  0.00    +0.000 N 
ATOM     17  H   UNL     1      47.604   5.758  17.349  0.00  0.00    +0.000 HD
BRANCH  16  21
ATOM     18  C   UNL     1      50.265   2.018  17.081  0.00  0.00    +0.000 A 
ATOM     19  C   UNL     1      50.663   3.192  17.702  0.00  0.00    +0.000 A 
ATOM     20  N   UNL     1      49.992   4.368  17.558  0.00  0.00    +0.000 NA
ATOM     21  C   UNL     1      48.890   4.336  16.776  0.00  0.00    +0.000 A 
ATOM     22  C   UNL     1      48.510   3.137  16.162  0.00  0.00    +0.000 A 
ATOM     23  N   UNL     1      49.167   1.959  16.303  0.00  0.00    +0.000 NA
BRANCH  18  25
ATOM     24  C   UNL     1      52.377   1.196  17.637  0.00  0.00    +0.000 C 
ATOM     25  O   UNL     1      51.034   0.887  17.274  0.00  0.00    +0.000 OA
ENDBRANCH  18  25
ENDBRANCH  16  21
ENDBRANCH   1  16
TORSDOF 5
ENDMDL
