MODEL 1
REMARK VINA RESULT:    -8.787      0.000      0.000
REMARK INTER + INTRA:         -13.002
REMARK INTER:                 -11.869
REMARK INTRA:                  -1.133
REMARK UNBOUND:                -1.133
REMARK  Name = 
REMARK  7 active torsions:
REMARK  status: ('A' for Active; 'I' for Inactive)
REMARK    1  A    between atoms: C_1  and  C_2
REMARK    2  A    between atoms: C_5  and  N_6
REMARK    3  A    between atoms: N_6  and  C_7
REMARK    4  A    between atoms: C_7  and  C_8
REMARK    5  A    between atoms: C_11  and  C_12
REMARK    6  A    between atoms: C_12  and  N_13
REMARK    7  A    between atoms: C_14  and  C_16
REMARK                            x       y       z     vdW  Elec       q    Type
REMARK                         _______ _______ _______ _____ _____    ______ ____
ROOT
ATOM      1  C   UNL     1      44.596   5.738  11.359  0.00  0.00    +0.000 A 
ATOM      2  C   UNL     1      45.845   5.250  11.767  0.00  0.00    +0.000 A 
ATOM      3  C   UNL     1      46.767   6.087  12.410  0.00  0.00    +0.000 A 
ATOM      4  C   UNL     1      46.455   7.429  12.669  0.00  0.00    +0.000 A 
ATOM      5  C   UNL     1      45.261   7.947  12.153  0.00  0.00    +0.000 A 
ATOM      6  C   UNL     1      44.335   7.108  11.513  0.00  0.00    +0.000 A 
ENDROOT
BRANCH   1   7
ATOM      7  C   UNL     1      43.524   4.783  10.858  0.00  0.00    +0.000 C 
BRANCH   7   8
ATOM      8  N   UNL     1      43.634   4.653   9.403  0.00  0.00    +0.000 N 
ATOM      9  H   UNL     1      43.554   5.553   8.933  0.00  0.00    +0.000 HD
BRANCH   8  14
ATOM     10  C   UNL     1      47.574   1.225   7.015  0.00  0.00    +0.000 C 
ATOM     11  C   UNL     1      46.596   2.143   7.686  0.00  0.00    +0.000 A 
ATOM     12  C   UNL     1      46.628   3.521   7.456  0.00  0.00    +0.000 A 
ATOM     13  C   UNL     1      45.668   4.370   8.033  0.00  0.00    +0.000 A 
ATOM     14  C   UNL     1      44.634   3.864   8.825  0.00  0.00    +0.000 A 
ATOM     15  C   UNL     1      44.690   2.499   9.148  0.00  0.00    +0.000 A 
ATOM     16  C   UNL     1      45.650   1.646   8.585  0.00  0.00    +0.000 A 
ENDBRANCH   8  14
ENDBRANCH   7   8
ENDBRANCH   1   7
BRANCH   4  17
ATOM     17  C   UNL     1      47.334   8.257  13.574  0.00  0.00    +0.000 C 
BRANCH  17  18
ATOM     18  N   UNL     1      47.668   7.617  14.820  0.00  0.00    +0.000 N 
ATOM     19  C   UNL     1      48.859   6.935  14.935  0.00  0.00    +0.000 C 
ATOM     20  O   UNL     1      49.692   6.927  14.031  0.00  0.00    +0.000 OA
ATOM     21  H   UNL     1      46.912   7.416  15.466  0.00  0.00    +0.000 HD
BRANCH  19  22
ATOM     22  C   UNL     1      49.124   6.254  16.209  0.00  0.00    +0.000 A 
ATOM     23  C   UNL     1      50.130   6.726  17.043  0.00  0.00    +0.000 A 
ATOM     24  S   UNL     1      50.283   5.848  18.496  0.00  0.00    +0.000 S 
ATOM     25  C   UNL     1      49.051   4.770  18.037  0.00  0.00    +0.000 A 
ATOM     26  N   UNL     1      48.695   3.729  18.838  0.00  0.00    +0.000 NA
ATOM     27  C   UNL     1      47.781   2.965  18.345  0.00  0.00    +0.000 A 
ATOM     28  N   UNL     1      47.180   3.150  17.126  0.00  0.00    +0.000 N 
ATOM     29  C   UNL     1      47.471   4.210  16.304  0.00  0.00    +0.000 A 
ATOM     30  O   UNL     1      46.877   4.385  15.247  0.00  0.00    +0.000 OA
ATOM     31  C   UNL     1      48.513   5.089  16.801  0.00  0.00    +0.000 A 
ATOM     32  H   UNL     1      46.465   2.518  16.803  0.00  0.00    +0.000 HD
ENDBRANCH  19  22
ENDBRANCH  17  18
ENDBRANCH   4  17
TORSDOF 6
ENDMDL
MODEL 2
REMARK VINA RESULT:    -8.692      1.633      2.112
REMARK INTER + INTRA:         -12.873
REMARK INTER:                 -12.014
REMARK INTRA:                  -0.860
REMARK UNBOUND:                -1.133
REMARK  Name = 
REMARK  7 active torsions:
REMARK  status: ('A' for Active; 'I' for Inactive)
REMARK    1  A    between atoms: C_1  and  C_2
REMARK    2  A    between atoms: C_5  and  N_6
REMARK    3  A    between atoms: N_6  and  C_7
REMARK    4  A    between atoms: C_7  and  C_8
REMARK    5  A    between atoms: C_11  and  C_12
REMARK    6  A    between atoms: C_12  and  N_13
REMARK    7  A    between atoms: C_14  and  C_16
REMARK                            x       y       z     vdW  Elec       q    Type
REMARK                         _______ _______ _______ _____ _____    ______ ____
ROOT
ATOM      1  C   UNL     1      44.782   4.309  11.327  0.00  0.00    +0.000 A 
ATOM      2  C   UNL     1      45.169   5.599  10.939  0.00  0.00    +0.000 A 
ATOM      3  C   UNL     1      46.130   6.310  11.669  0.00  0.00    +0.000 A 
ATOM      4  C   UNL     1      46.734   5.742  12.799  0.00  0.00    +0.000 A 
ATOM      5  C   UNL     1      46.259   4.507  13.258  0.00  0.00    +0.000 A 
ATOM      6  C   UNL     1      45.300   3.792  12.525  0.00  0.00    +0.000 A 
ENDROOT
BRANCH   1   7
ATOM      7  C   UNL     1      43.904   3.463  10.419  0.00  0.00    +0.000 C 
BRANCH   7   8
ATOM      8  N   UNL     1      44.672   2.315   9.935  0.00  0.00    +0.000 N 
ATOM      9  H   UNL     1      44.127   1.454   9.957  0.00  0.00    +0.000 HD
BRANCH   8  14
ATOM     10  C   UNL     1      47.754   2.431   5.090  0.00  0.00    +0.000 C 
ATOM     11  C   UNL     1      47.003   2.438   6.389  0.00  0.00    +0.000 A 
ATOM     12  C   UNL     1      46.360   3.592   6.843  0.00  0.00    +0.000 A 
ATOM     13  C   UNL     1      45.601   3.576   8.025  0.00  0.00    +0.000 A 
ATOM     14  C   UNL     1      45.437   2.402   8.766  0.00  0.00    +0.000 A 
ATOM     15  C   UNL     1      46.190   1.287   8.366  0.00  0.00    +0.000 A 
ATOM     16  C   UNL     1      46.958   1.297   7.192  0.00  0.00    +0.000 A 
ENDBRANCH   8  14
ENDBRANCH   7   8
ENDBRANCH   1   7
BRANCH   4  17
ATOM     17  C   UNL     1      47.936   6.397  13.434  0.00  0.00    +0.000 C 
BRANCH  17  18
ATOM     18  N   UNL     1      47.824   6.587  14.857  0.00  0.00    +0.000 N 
ATOM     19  C   UNL     1      48.966   6.676  15.621  0.00  0.00    +0.000 C 
ATOM     20  O   UNL     1      50.087   6.686  15.115  0.00  0.00    +0.000 OA
ATOM     21  H   UNL     1      46.944   6.343  15.298  0.00  0.00    +0.000 HD
BRANCH  19  22
ATOM     22  C   UNL     1      48.794   6.813  17.073  0.00  0.00    +0.000 A 
ATOM     23  C   UNL     1      48.582   8.071  17.624  0.00  0.00    +0.000 A 
ATOM     24  S   UNL     1      48.366   8.051  19.315  0.00  0.00    +0.000 S 
ATOM     25  C   UNL     1      48.607   6.369  19.379  0.00  0.00    +0.000 A 
ATOM     26  N   UNL     1      48.584   5.703  20.565  0.00  0.00    +0.000 NA
ATOM     27  C   UNL     1      48.828   4.440  20.472  0.00  0.00    +0.000 A 
ATOM     28  N   UNL     1      49.085   3.777  19.299  0.00  0.00    +0.000 N 
ATOM     29  C   UNL     1      49.073   4.397  18.074  0.00  0.00    +0.000 A 
ATOM     30  O   UNL     1      49.246   3.769  17.035  0.00  0.00    +0.000 OA
ATOM     31  C   UNL     1      48.826   5.826  18.124  0.00  0.00    +0.000 A 
ATOM     32  H   UNL     1      49.261   2.785  19.296  0.00  0.00    +0.000 HD
ENDBRANCH  19  22
ENDBRANCH  17  18
ENDBRANCH   4  17
TORSDOF 6
ENDMDL
MODEL 3
REMARK VINA RESULT:    -8.348      2.352      3.092
REMARK INTER + INTRA:         -12.409
REMARK INTER:                 -11.164
REMARK INTRA:                  -1.245
REMARK UNBOUND:                -1.133
REMARK  Name = 
REMARK  7 active torsions:
REMARK  status: ('A' for Active; 'I' for Inactive)
REMARK    1  A    between atoms: C_1  and  C_2
REMARK    2  A    between atoms: C_5  and  N_6
REMARK    3  A    between atoms: N_6  and  C_7
REMARK    4  A    between atoms: C_7  and  C_8
REMARK    5  A    between atoms: C_11  and  C_12
REMARK    6  A    between atoms: C_12  and  N_13
REMARK    7  A    between atoms: C_14  and  C_16
REMARK                            x       y       z     vdW  Elec       q    Type
REMARK                         _______ _______ _______ _____ _____    ______ ____
ROOT
ATOM      1  C   UNL     1      45.017   5.085  12.007  0.00  0.00    +0.000 A 
ATOM      2  C   UNL     1      45.666   4.303  12.973  0.00  0.00    +0.000 A 
ATOM      3  C   UNL     1      46.830   4.761  13.604  0.00  0.00    +0.000 A 
ATOM      4  C   UNL     1      47.365   6.018  13.291  0.00  0.00    +0.000 A 
ATOM      5  C   UNL     1      46.789   6.745  12.241  0.00  0.00    +0.000 A 
ATOM      6  C   UNL     1      45.621   6.288  11.612  0.00  0.00    +0.000 A 
ENDROOT
BRANCH   1   7
ATOM      7  C   UNL     1      43.648   4.680  11.484  0.00  0.00    +0.000 C 
BRANCH   7   8
ATOM      8  N   UNL     1      43.674   4.668  10.020  0.00  0.00    +0.000 N 
ATOM      9  H   UNL     1      43.699   5.610   9.632  0.00  0.00    +0.000 HD
BRANCH   8  14
ATOM     10  C   UNL     1      47.360   1.318   7.160  0.00  0.00    +0.000 C 
ATOM     11  C   UNL     1      46.344   2.170   7.862  0.00  0.00    +0.000 A 
ATOM     12  C   UNL     1      45.413   1.606   8.739  0.00  0.00    +0.000 A 
ATOM     13  C   UNL     1      44.508   2.416   9.446  0.00  0.00    +0.000 A 
ATOM     14  C   UNL     1      44.530   3.808   9.323  0.00  0.00    +0.000 A 
ATOM     15  C   UNL     1      45.382   4.347   8.346  0.00  0.00    +0.000 A 
ATOM     16  C   UNL     1      46.283   3.546   7.629  0.00  0.00    +0.000 A 
ENDBRANCH   8  14
ENDBRANCH   7   8
ENDBRANCH   1   7
BRANCH   4  17
ATOM     17  C   UNL     1      48.461   6.615  14.139  0.00  0.00    +0.000 C 
BRANCH  17  18
ATOM     18  N   UNL     1      48.105   6.799  15.522  0.00  0.00    +0.000 N 
ATOM     19  C   UNL     1      48.942   6.325  16.508  0.00  0.00    +0.000 C 
ATOM     20  O   UNL     1      50.034   5.824  16.245  0.00  0.00    +0.000 OA
ATOM     21  H   UNL     1      47.131   6.983  15.739  0.00  0.00    +0.000 HD
BRANCH  19  22
ATOM     22  C   UNL     1      48.504   6.490  17.899  0.00  0.00    +0.000 A 
ATOM     23  C   UNL     1      48.460   5.385  18.741  0.00  0.00    +0.000 A 
ATOM     24  S   UNL     1      47.966   5.753  20.330  0.00  0.00    +0.000 S 
ATOM     25  C   UNL     1      47.736   7.392  19.936  0.00  0.00    +0.000 A 
ATOM     26  N   UNL     1      47.279   8.277  20.862  0.00  0.00    +0.000 NA
ATOM     27  C   UNL     1      47.106   9.475  20.414  0.00  0.00    +0.000 A 
ATOM     28  N   UNL     1      47.358   9.872  19.126  0.00  0.00    +0.000 N 
ATOM     29  C   UNL     1      47.864   9.027  18.169  0.00  0.00    +0.000 A 
ATOM     30  O   UNL     1      48.137   9.422  17.042  0.00  0.00    +0.000 OA
ATOM     31  C   UNL     1      48.054   7.659  18.615  0.00  0.00    +0.000 A 
ATOM     32  H   UNL     1      47.208  10.827  18.842  0.00  0.00    +0.000 HD
ENDBRANCH  19  22
ENDBRANCH  17  18
ENDBRANCH   4  17
TORSDOF 6
ENDMDL
MODEL 4
REMARK VINA RESULT:    -7.835      1.653      2.133
REMARK INTER + INTRA:         -11.717
REMARK INTER:                 -10.587
REMARK INTRA:                  -1.130
REMARK UNBOUND:                -1.133
REMARK  Name = 
REMARK  7 active torsions:
REMARK  status: ('A' for Active; 'I' for Inactive)
REMARK    1  A    between atoms: C_1  and  C_2
REMARK    2  A    between atoms: C_5  and  N_6
REMARK    3  A    between atoms: N_6  and  C_7
REMARK    4  A    between atoms: C_7  and  C_8
REMARK    5  A    between atoms: C_11  and  C_12
REMARK    6  A    between atoms: C_12  and  N_13
REMARK    7  A    between atoms: C_14  and  C_16
REMARK                            x       y       z     vdW  Elec       q    Type
REMARK                         _______ _______ _______ _____ _____    ______ ____
ROOT
ATOM      1  C   UNL     1      44.884   4.611  11.961  0.00  0.00    +0.000 A 
ATOM      2  C   UNL     1      44.784   5.915  11.456  0.00  0.00    +0.000 A 
ATOM      3  C   UNL     1      45.691   6.908  11.848  0.00  0.00    +0.000 A 
ATOM      4  C   UNL     1      46.727   6.616  12.746  0.00  0.00    +0.000 A 
ATOM      5  C   UNL     1      46.753   5.350  13.344  0.00  0.00    +0.000 A 
ATOM      6  C   UNL     1      45.847   4.354  12.949  0.00  0.00    +0.000 A 
ENDROOT
BRANCH   1   7
ATOM      7  C   UNL     1      44.036   3.492  11.376  0.00  0.00    +0.000 C 
BRANCH   7   8
ATOM      8  N   UNL     1      43.872   3.712   9.938  0.00  0.00    +0.000 N 
ATOM      9  H   UNL     1      43.508   4.641   9.733  0.00  0.00    +0.000 HD
BRANCH   8  14
ATOM     10  C   UNL     1      47.879   2.005   6.195  0.00  0.00    +0.000 C 
ATOM     11  C   UNL     1      46.886   2.475   7.217  0.00  0.00    +0.000 A 
ATOM     12  C   UNL     1      46.579   3.832   7.350  0.00  0.00    +0.000 A 
ATOM     13  C   UNL     1      45.598   4.262   8.260  0.00  0.00    +0.000 A 
ATOM     14  C   UNL     1      44.878   3.349   9.035  0.00  0.00    +0.000 A 
ATOM     15  C   UNL     1      45.286   2.007   8.982  0.00  0.00    +0.000 A 
ATOM     16  C   UNL     1      46.270   1.570   8.082  0.00  0.00    +0.000 A 
ENDBRANCH   8  14
ENDBRANCH   7   8
ENDBRANCH   1   7
BRANCH   4  17
ATOM     17  C   UNL     1      47.843   7.606  12.973  0.00  0.00    +0.000 C 
BRANCH  17  18
ATOM     18  N   UNL     1      48.956   7.081  13.720  0.00  0.00    +0.000 N 
ATOM     19  C   UNL     1      49.220   7.570  14.980  0.00  0.00    +0.000 C 
ATOM     20  O   UNL     1      48.479   8.385  15.527  0.00  0.00    +0.000 OA
ATOM     21  H   UNL     1      49.690   6.606  13.204  0.00  0.00    +0.000 HD
BRANCH  19  22
ATOM     22  C   UNL     1      50.400   7.040  15.675  0.00  0.00    +0.000 A 
ATOM     23  C   UNL     1      51.653   7.578  15.408  0.00  0.00    +0.000 A 
ATOM     24  S   UNL     1      52.908   6.876  16.324  0.00  0.00    +0.000 S 
ATOM     25  C   UNL     1      51.831   5.788  17.065  0.00  0.00    +0.000 A 
ATOM     26  N   UNL     1      52.275   4.863  17.958  0.00  0.00    +0.000 NA
ATOM     27  C   UNL     1      51.359   4.072  18.406  0.00  0.00    +0.000 A 
ATOM     28  N   UNL     1      50.036   4.128  18.051  0.00  0.00    +0.000 N 
ATOM     29  C   UNL     1      49.533   5.072  17.191  0.00  0.00    +0.000 A 
ATOM     30  O   UNL     1      48.336   5.137  16.936  0.00  0.00    +0.000 OA
ATOM     31  C   UNL     1      50.527   5.973  16.637  0.00  0.00    +0.000 A 
ATOM     32  H   UNL     1      49.368   3.483  18.445  0.00  0.00    +0.000 HD
ENDBRANCH  19  22
ENDBRANCH  17  18
ENDBRANCH   4  17
TORSDOF 6
ENDMDL
MODEL 5
REMARK VINA RESULT:    -7.725      2.454      4.371
REMARK INTER + INTRA:         -11.568
REMARK INTER:                 -10.337
REMARK INTRA:                  -1.231
REMARK UNBOUND:                -1.133
REMARK  Name = 
REMARK  7 active torsions:
REMARK  status: ('A' for Active; 'I' for Inactive)
REMARK    1  A    between atoms: C_1  and  C_2
REMARK    2  A    between atoms: C_5  and  N_6
REMARK    3  A    between atoms: N_6  and  C_7
REMARK    4  A    between atoms: C_7  and  C_8
REMARK    5  A    between atoms: C_11  and  C_12
REMARK    6  A    between atoms: C_12  and  N_13
REMARK    7  A    between atoms: C_14  and  C_16
REMARK                            x       y       z     vdW  Elec       q    Type
REMARK                         _______ _______ _______ _____ _____    ______ ____
ROOT
ATOM      1  C   UNL     1      44.961   4.588  11.403  0.00  0.00    +0.000 A 
ATOM      2  C   UNL     1      45.324   3.618  12.348  0.00  0.00    +0.000 A 
ATOM      3  C   UNL     1      46.273   3.901  13.339  0.00  0.00    +0.000 A 
ATOM      4  C   UNL     1      46.873   5.166  13.414  0.00  0.00    +0.000 A 
ATOM      5  C   UNL     1      46.603   6.092  12.399  0.00  0.00    +0.000 A 
ATOM      6  C   UNL     1      45.649   5.811  11.409  0.00  0.00    +0.000 A 
ENDROOT
BRANCH   1   7
ATOM      7  C   UNL     1      43.785   4.349  10.470  0.00  0.00    +0.000 C 
BRANCH   7   8
ATOM      8  N   UNL     1      43.971   3.074   9.774  0.00  0.00    +0.000 N 
ATOM      9  H   UNL     1      43.086   2.678   9.462  0.00  0.00    +0.000 HD
BRANCH   8  14
ATOM     10  C   UNL     1      47.981   2.215   5.754  0.00  0.00    +0.000 C 
ATOM     11  C   UNL     1      46.984   2.475   6.845  0.00  0.00    +0.000 A 
ATOM     12  C   UNL     1      46.413   3.739   7.012  0.00  0.00    +0.000 A 
ATOM     13  C   UNL     1      45.430   3.961   7.990  0.00  0.00    +0.000 A 
ATOM     14  C   UNL     1      44.966   2.923   8.803  0.00  0.00    +0.000 A 
ATOM     15  C   UNL     1      45.637   1.694   8.708  0.00  0.00    +0.000 A 
ATOM     16  C   UNL     1      46.627   1.465   7.741  0.00  0.00    +0.000 A 
ENDBRANCH   8  14
ENDBRANCH   7   8
ENDBRANCH   1   7
BRANCH   4  17
ATOM     17  C   UNL     1      47.698   5.550  14.618  0.00  0.00    +0.000 C 
BRANCH  17  18
ATOM     18  N   UNL     1      47.862   6.970  14.794  0.00  0.00    +0.000 N 
ATOM     19  C   UNL     1      49.098   7.474  15.131  0.00  0.00    +0.000 C 
ATOM     20  O   UNL     1      50.094   6.756  15.202  0.00  0.00    +0.000 OA
ATOM     21  H   UNL     1      47.030   7.523  14.973  0.00  0.00    +0.000 HD
BRANCH  19  22
ATOM     22  C   UNL     1      49.197   8.922  15.353  0.00  0.00    +0.000 A 
ATOM     23  C   UNL     1      49.559   9.402  16.606  0.00  0.00    +0.000 A 
ATOM     24  S   UNL     1      49.663  11.101  16.685  0.00  0.00    +0.000 S 
ATOM     25  C   UNL     1      49.169  11.260  15.065  0.00  0.00    +0.000 A 
ATOM     26  N   UNL     1      49.018  12.486  14.496  0.00  0.00    +0.000 NA
ATOM     27  C   UNL     1      48.593  12.460  13.278  0.00  0.00    +0.000 A 
ATOM     28  N   UNL     1      48.315  11.318  12.572  0.00  0.00    +0.000 N 
ATOM     29  C   UNL     1      48.497  10.059  13.087  0.00  0.00    +0.000 A 
ATOM     30  O   UNL     1      48.297   9.054  12.413  0.00  0.00    +0.000 OA
ATOM     31  C   UNL     1      48.951  10.031  14.465  0.00  0.00    +0.000 A 
ATOM     32  H   UNL     1      47.993  11.367  11.618  0.00  0.00    +0.000 HD
ENDBRANCH  19  22
ENDBRANCH  17  18
ENDBRANCH   4  17
TORSDOF 6
ENDMDL
MODEL 6
REMARK VINA RESULT:    -7.440      4.007      5.258
REMARK INTER + INTRA:         -11.183
REMARK INTER:                  -9.947
REMARK INTRA:                  -1.235
REMARK UNBOUND:                -1.133
REMARK  Name = 
REMARK  7 active torsions:
REMARK  status: ('A' for Active; 'I' for Inactive)
REMARK    1  A    between atoms: C_1  and  C_2
REMARK    2  A    between atoms: C_5  and  N_6
REMARK    3  A    between atoms: N_6  and  C_7
REMARK    4  A    between atoms: C_7  and  C_8
REMARK    5  A    between atoms: C_11  and  C_12
REMARK    6  A    between atoms: C_12  and  N_13
REMARK    7  A    between atoms: C_14  and  C_16
REMARK                            x       y       z     vdW  Elec       q    Type
REMARK                         _______ _______ _______ _____ _____    ______ ____
ROOT
ATOM      1  C   UNL     1      44.493   5.005  11.871  0.00  0.00    +0.000 A 
ATOM      2  C   UNL     1      43.924   6.178  11.355  0.00  0.00    +0.000 A 
ATOM      3  C   UNL     1      44.421   7.436  11.716  0.00  0.00    +0.000 A 
ATOM      4  C   UNL     1      45.509   7.551  12.593  0.00  0.00    +0.000 A 
ATOM      5  C   UNL     1      45.997   6.389  13.203  0.00  0.00    +0.000 A 
ATOM      6  C   UNL     1      45.502   5.128  12.839  0.00  0.00    +0.000 A 
ENDROOT
BRANCH   1   7
ATOM      7  C   UNL     1      44.092   3.647  11.317  0.00  0.00    +0.000 C 
BRANCH   7   8
ATOM      8  N   UNL     1      43.900   3.753   9.870  0.00  0.00    +0.000 N 
ATOM      9  H   UNL     1      43.486   4.645   9.604  0.00  0.00    +0.000 HD
BRANCH   8  14
ATOM     10  C   UNL     1      47.941   1.994   6.188  0.00  0.00    +0.000 C 
ATOM     11  C   UNL     1      46.939   2.480   7.193  0.00  0.00    +0.000 A 
ATOM     12  C   UNL     1      46.611   3.836   7.285  0.00  0.00    +0.000 A 
ATOM     13  C   UNL     1      45.623   4.278   8.180  0.00  0.00    +0.000 A 
ATOM     14  C   UNL     1      44.913   3.378   8.980  0.00  0.00    +0.000 A 
ATOM     15  C   UNL     1      45.341   2.041   8.967  0.00  0.00    +0.000 A 
ATOM     16  C   UNL     1      46.333   1.592   8.084  0.00  0.00    +0.000 A 
ENDBRANCH   8  14
ENDBRANCH   7   8
ENDBRANCH   1   7
BRANCH   4  17
ATOM     17  C   UNL     1      46.200   8.879  12.784  0.00  0.00    +0.000 C 
BRANCH  17  18
ATOM     18  N   UNL     1      47.426   9.020  12.041  0.00  0.00    +0.000 N 
ATOM     19  C   UNL     1      48.325  10.000  12.396  0.00  0.00    +0.000 C 
ATOM     20  O   UNL     1      48.156  10.708  13.387  0.00  0.00    +0.000 OA
ATOM     21  H   UNL     1      47.462   8.621  11.109  0.00  0.00    +0.000 HD
BRANCH  19  22
ATOM     22  C   UNL     1      49.532  10.136  11.570  0.00  0.00    +0.000 A 
ATOM     23  C   UNL     1      49.868  11.378  11.044  0.00  0.00    +0.000 A 
ATOM     24  S   UNL     1      51.314  11.371  10.142  0.00  0.00    +0.000 S 
ATOM     25  C   UNL     1      51.512   9.697  10.372  0.00  0.00    +0.000 A 
ATOM     26  N   UNL     1      52.564   9.034   9.819  0.00  0.00    +0.000 NA
ATOM     27  C   UNL     1      52.564   7.762  10.035  0.00  0.00    +0.000 A 
ATOM     28  N   UNL     1      51.614   7.092  10.763  0.00  0.00    +0.000 N 
ATOM     29  C   UNL     1      50.563   7.724  11.378  0.00  0.00    +0.000 A 
ATOM     30  O   UNL     1      49.761   7.109  12.073  0.00  0.00    +0.000 OA
ATOM     31  C   UNL     1      50.501   9.155  11.147  0.00  0.00    +0.000 A 
ATOM     32  H   UNL     1      51.678   6.096  10.900  0.00  0.00    +0.000 HD
ENDBRANCH  19  22
ENDBRANCH  17  18
ENDBRANCH   4  17
TORSDOF 6
ENDMDL
MODEL 7
REMARK VINA RESULT:    -7.276      3.487      4.814
REMARK INTER + INTRA:         -10.961
REMARK INTER:                 -10.006
REMARK INTRA:                  -0.955
REMARK UNBOUND:                -1.133
REMARK  Name = 
REMARK  7 active torsions:
REMARK  status: ('A' for Active; 'I' for Inactive)
REMARK    1  A    between atoms: C_1  and  C_2
REMARK    2  A    between atoms: C_5  and  N_6
REMARK    3  A    between atoms: N_6  and  C_7
REMARK    4  A    between atoms: C_7  and  C_8
REMARK    5  A    between atoms: C_11  and  C_12
REMARK    6  A    between atoms: C_12  and  N_13
REMARK    7  A    between atoms: C_14  and  C_16
REMARK                            x       y       z     vdW  Elec       q    Type
REMARK                         _______ _______ _______ _____ _____    ______ ____
ROOT
ATOM      1  C   UNL     1      45.104   5.051  11.389  0.00  0.00    +0.000 A 
ATOM      2  C   UNL     1      45.475   4.330  12.533  0.00  0.00    +0.000 A 
ATOM      3  C   UNL     1      46.521   4.771  13.352  0.00  0.00    +0.000 A 
ATOM      4  C   UNL     1      47.215   5.952  13.053  0.00  0.00    +0.000 A 
ATOM      5  C   UNL     1      46.928   6.605  11.848  0.00  0.00    +0.000 A 
ATOM      6  C   UNL     1      45.877   6.166  11.029  0.00  0.00    +0.000 A 
ENDROOT
BRANCH   1   7
ATOM      7  C   UNL     1      43.840   4.688  10.627  0.00  0.00    +0.000 C 
BRANCH   7   8
ATOM      8  N   UNL     1      44.000   3.360  10.031  0.00  0.00    +0.000 N 
ATOM      9  H   UNL     1      43.103   2.939   9.793  0.00  0.00    +0.000 HD
BRANCH   8  14
ATOM     10  C   UNL     1      47.810   2.182   5.899  0.00  0.00    +0.000 C 
ATOM     11  C   UNL     1      46.869   2.521   7.017  0.00  0.00    +0.000 A 
ATOM     12  C   UNL     1      46.403   3.827   7.195  0.00  0.00    +0.000 A 
ATOM     13  C   UNL     1      45.469   4.127   8.200  0.00  0.00    +0.000 A 
ATOM     14  C   UNL     1      44.951   3.129   9.031  0.00  0.00    +0.000 A 
ATOM     15  C   UNL     1      45.523   1.852   8.923  0.00  0.00    +0.000 A 
ATOM     16  C   UNL     1      46.462   1.545   7.928  0.00  0.00    +0.000 A 
ENDBRANCH   8  14
ENDBRANCH   7   8
ENDBRANCH   1   7
BRANCH   4  17
ATOM     17  C   UNL     1      48.164   6.557  14.058  0.00  0.00    +0.000 C 
BRANCH  17  18
ATOM     18  N   UNL     1      49.431   6.962  13.507  0.00  0.00    +0.000 N 
ATOM     19  C   UNL     1      49.634   8.281  13.170  0.00  0.00    +0.000 C 
ATOM     20  O   UNL     1      48.795   9.148  13.407  0.00  0.00    +0.000 OA
ATOM     21  H   UNL     1      50.018   6.243  13.094  0.00  0.00    +0.000 HD
BRANCH  19  22
ATOM     22  C   UNL     1      50.924   8.628  12.559  0.00  0.00    +0.000 A 
ATOM     23  C   UNL     1      50.963   9.075  11.244  0.00  0.00    +0.000 A 
ATOM     24  S   UNL     1      52.531   9.470  10.701  0.00  0.00    +0.000 S 
ATOM     25  C   UNL     1      53.219   9.002  12.184  0.00  0.00    +0.000 A 
ATOM     26  N   UNL     1      54.564   9.061  12.381  0.00  0.00    +0.000 NA
ATOM     27  C   UNL     1      54.953   8.633  13.534  0.00  0.00    +0.000 A 
ATOM     28  N   UNL     1      54.120   8.158  14.514  0.00  0.00    +0.000 N 
ATOM     29  C   UNL     1      52.754   8.123  14.380  0.00  0.00    +0.000 A 
ATOM     30  O   UNL     1      52.028   7.750  15.294  0.00  0.00    +0.000 OA
ATOM     31  C   UNL     1      52.264   8.573  13.090  0.00  0.00    +0.000 A 
ATOM     32  H   UNL     1      54.489   7.844  15.398  0.00  0.00    +0.000 HD
ENDBRANCH  19  22
ENDBRANCH  17  18
ENDBRANCH   4  17
TORSDOF 6
ENDMDL
MODEL 8
REMARK VINA RESULT:    -7.243      2.986      8.091
REMARK INTER + INTRA:         -10.917
REMARK INTER:                  -9.662
REMARK INTRA:                  -1.255
REMARK UNBOUND:                -1.133
REMARK  Name = 
REMARK  7 active torsions:
REMARK  status: ('A' for Active; 'I' for Inactive)
REMARK    1  A    between atoms: C_1  and  C_2
REMARK    2  A    between atoms: C_5  and  N_6
REMARK    3  A    between atoms: N_6  and  C_7
REMARK    4  A    between atoms: C_7  and  C_8
REMARK    5  A    between atoms: C_11  and  C_12
REMARK    6  A    between atoms: C_12  and  N_13
REMARK    7  A    between atoms: C_14  and  C_16
REMARK                            x       y       z     vdW  Elec       q    Type
REMARK                         _______ _______ _______ _____ _____    ______ ____
ROOT
ATOM      1  C   UNL     1      49.104   7.988  15.783  0.00  0.00    +0.000 A 
ATOM      2  C   UNL     1      48.046   8.815  15.382  0.00  0.00    +0.000 A 
ATOM      3  C   UNL     1      47.624   8.844  14.046  0.00  0.00    +0.000 A 
ATOM      4  C   UNL     1      48.244   8.036  13.083  0.00  0.00    +0.000 A 
ATOM      5  C   UNL     1      49.378   7.304  13.457  0.00  0.00    +0.000 A 
ATOM      6  C   UNL     1      49.798   7.271  14.796  0.00  0.00    +0.000 A 
ENDROOT
BRANCH   1   7
ATOM      7  C   UNL     1      49.417   7.801  17.259  0.00  0.00    +0.000 C 
BRANCH   7   8
ATOM      8  N   UNL     1      48.728   6.607  17.753  0.00  0.00    +0.000 N 
ATOM      9  H   UNL     1      47.748   6.591  17.475  0.00  0.00    +0.000 HD
BRANCH   8  14
ATOM     10  C   UNL     1      51.302   1.483  17.436  0.00  0.00    +0.000 C 
ATOM     11  C   UNL     1      50.620   2.819  17.445  0.00  0.00    +0.000 A 
ATOM     12  C   UNL     1      49.232   2.920  17.315  0.00  0.00    +0.000 A 
ATOM     13  C   UNL     1      48.591   4.168  17.394  0.00  0.00    +0.000 A 
ATOM     14  C   UNL     1      49.312   5.340  17.637  0.00  0.00    +0.000 A 
ATOM     15  C   UNL     1      50.711   5.238  17.638  0.00  0.00    +0.000 A 
ATOM     16  C   UNL     1      51.361   3.998  17.552  0.00  0.00    +0.000 A 
ENDBRANCH   8  14
ENDBRANCH   7   8
ENDBRANCH   1   7
BRANCH   4  17
ATOM     17  C   UNL     1      47.635   7.878  11.711  0.00  0.00    +0.000 C 
BRANCH  17  18
ATOM     18  N   UNL     1      46.962   6.622  11.503  0.00  0.00    +0.000 N 
ATOM     19  C   UNL     1      45.593   6.556  11.636  0.00  0.00    +0.000 C 
ATOM     20  O   UNL     1      44.912   7.559  11.842  0.00  0.00    +0.000 OA
ATOM     21  H   UNL     1      47.514   5.774  11.574  0.00  0.00    +0.000 HD
BRANCH  19  22
ATOM     22  C   UNL     1      44.964   5.240  11.469  0.00  0.00    +0.000 A 
ATOM     23  C   UNL     1      44.281   4.665  12.534  0.00  0.00    +0.000 A 
ATOM     24  S   UNL     1      43.580   3.156  12.162  0.00  0.00    +0.000 S 
ATOM     25  C   UNL     1      44.214   3.189  10.585  0.00  0.00    +0.000 A 
ATOM     26  N   UNL     1      44.008   2.155   9.725  0.00  0.00    +0.000 NA
ATOM     27  C   UNL     1      44.585   2.291   8.580  0.00  0.00    +0.000 A 
ATOM     28  N   UNL     1      45.343   3.372   8.210  0.00  0.00    +0.000 N 
ATOM     29  C   UNL     1      45.541   4.459   9.024  0.00  0.00    +0.000 A 
ATOM     30  O   UNL     1      46.173   5.439   8.646  0.00  0.00    +0.000 OA
ATOM     31  C   UNL     1      44.932   4.347  10.337  0.00  0.00    +0.000 A 
ATOM     32  H   UNL     1      45.762   3.419   7.294  0.00  0.00    +0.000 HD
ENDBRANCH  19  22
ENDBRANCH  17  18
ENDBRANCH   4  17
TORSDOF 6
ENDMDL
MODEL 9
REMARK VINA RESULT:    -7.072      3.275      4.668
REMARK INTER + INTRA:         -10.686
REMARK INTER:                  -9.379
REMARK INTRA:                  -1.307
REMARK UNBOUND:                -1.133
REMARK  Name = 
REMARK  7 active torsions:
REMARK  status: ('A' for Active; 'I' for Inactive)
REMARK    1  A    between atoms: C_1  and  C_2
REMARK    2  A    between atoms: C_5  and  N_6
REMARK    3  A    between atoms: N_6  and  C_7
REMARK    4  A    between atoms: C_7  and  C_8
REMARK    5  A    between atoms: C_11  and  C_12
REMARK    6  A    between atoms: C_12  and  N_13
REMARK    7  A    between atoms: C_14  and  C_16
REMARK                            x       y       z     vdW  Elec       q    Type
REMARK                         _______ _______ _______ _____ _____    ______ ____
ROOT
ATOM      1  C   UNL     1      44.917   5.931  11.682  0.00  0.00    +0.000 A 
ATOM      2  C   UNL     1      46.177   5.517  12.134  0.00  0.00    +0.000 A 
ATOM      3  C   UNL     1      47.043   6.416  12.770  0.00  0.00    +0.000 A 
ATOM      4  C   UNL     1      46.662   7.748  12.980  0.00  0.00    +0.000 A 
ATOM      5  C   UNL     1      45.457   8.192  12.421  0.00  0.00    +0.000 A 
ATOM      6  C   UNL     1      44.588   7.291  11.787  0.00  0.00    +0.000 A 
ENDROOT
BRANCH   1   7
ATOM      7  C   UNL     1      43.904   4.911  11.188  0.00  0.00    +0.000 C 
BRANCH   7   8
ATOM      8  N   UNL     1      43.926   4.876   9.725  0.00  0.00    +0.000 N 
ATOM      9  H   UNL     1      43.967   5.811   9.322  0.00  0.00    +0.000 HD
BRANCH   8  14
ATOM     10  C   UNL     1      47.193   1.066   6.932  0.00  0.00    +0.000 C 
ATOM     11  C   UNL     1      46.399   2.083   7.699  0.00  0.00    +0.000 A 
ATOM     12  C   UNL     1      46.491   3.444   7.398  0.00  0.00    +0.000 A 
ATOM     13  C   UNL     1      45.695   4.386   8.073  0.00  0.00    +0.000 A 
ATOM     14  C   UNL     1      44.766   3.991   9.039  0.00  0.00    +0.000 A 
ATOM     15  C   UNL     1      44.777   2.640   9.418  0.00  0.00    +0.000 A 
ATOM     16  C   UNL     1      45.574   1.694   8.756  0.00  0.00    +0.000 A 
ENDBRANCH   8  14
ENDBRANCH   7   8
ENDBRANCH   1   7
BRANCH   4  17
ATOM     17  C   UNL     1      47.479   8.645  13.878  0.00  0.00    +0.000 C 
BRANCH  17  18
ATOM     18  N   UNL     1      48.829   8.863  13.426  0.00  0.00    +0.000 N 
ATOM     19  C   UNL     1      49.878   8.319  14.133  0.00  0.00    +0.000 C 
ATOM     20  O   UNL     1      49.695   7.574  15.094  0.00  0.00    +0.000 OA
ATOM     21  H   UNL     1      48.998   9.647  12.803  0.00  0.00    +0.000 HD
BRANCH  19  22
ATOM     22  C   UNL     1      51.235   8.619  13.660  0.00  0.00    +0.000 A 
ATOM     23  C   UNL     1      52.154   9.194  14.530  0.00  0.00    +0.000 A 
ATOM     24  S   UNL     1      53.691   9.443  13.836  0.00  0.00    +0.000 S 
ATOM     25  C   UNL     1      53.167   8.847  12.332  0.00  0.00    +0.000 A 
ATOM     26  N   UNL     1      54.007   8.813  11.261  0.00  0.00    +0.000 NA
ATOM     27  C   UNL     1      53.465   8.382  10.173  0.00  0.00    +0.000 A 
ATOM     28  N   UNL     1      52.162   7.971  10.058  0.00  0.00    +0.000 N 
ATOM     29  C   UNL     1      51.291   7.942  11.119  0.00  0.00    +0.000 A 
ATOM     30  O   UNL     1      50.149   7.514  11.001  0.00  0.00    +0.000 OA
ATOM     31  C   UNL     1      51.844   8.441  12.364  0.00  0.00    +0.000 A 
ATOM     32  H   UNL     1      51.802   7.637   9.177  0.00  0.00    +0.000 HD
ENDBRANCH  19  22
ENDBRANCH  17  18
ENDBRANCH   4  17
TORSDOF 6
ENDMDL
