MODEL 1
REMARK VINA RESULT:    -8.765      0.000      0.000
REMARK INTER + INTRA:         -13.226
REMARK INTER:                 -12.352
REMARK INTRA:                  -0.874
REMARK UNBOUND:                -0.874
REMARK  Name = 
REMARK  7 active torsions:
REMARK  status: ('A' for Active; 'I' for Inactive)
REMARK    1  A    between atoms: C_2  and  C_20
REMARK    2  A    between atoms: N_3  and  C_4
REMARK    3  A    between atoms: C_4  and  C_5
REMARK    4  A    between atoms: C_9  and  C_10
REMARK    5  A    between atoms: C_10  and  N_11
REMARK    6  A    between atoms: N_11  and  C_12
REMARK    7  A    between atoms: C_12  and  C_13
REMARK                            x       y       z     vdW  Elec       q    Type
REMARK                         _______ _______ _______ _____ _____    ______ ____
ROOT
ATOM      1  C   UNL     1      46.190   3.819  14.522  0.00  0.00    +0.000 C 
ENDROOT
BRANCH   1   2
ATOM      2  C   UNL     1      46.002   4.701  13.316  0.00  0.00    +0.000 A 
ATOM      3  C   UNL     1      46.966   5.667  12.998  0.00  0.00    +0.000 A 
ATOM      4  C   UNL     1      46.826   6.457  11.860  0.00  0.00    +0.000 A 
ATOM      5  C   UNL     1      45.722   6.287  11.027  0.00  0.00    +0.000 A 
ATOM      6  C   UNL     1      44.739   5.330  11.325  0.00  0.00    +0.000 A 
ATOM      7  C   UNL     1      44.875   4.561  12.491  0.00  0.00    +0.000 A 
BRANCH   6   8
ATOM      8  C   UNL     1      43.597   5.088  10.362  0.00  0.00    +0.000 C 
BRANCH   8   9
ATOM      9  N   UNL     1      44.111   4.465   9.145  0.00  0.00    +0.000 NA
ATOM     10  H   UNL     1      44.988   4.919   8.889  0.00  0.00    +0.000 HD
BRANCH   9  11
ATOM     11  C   UNL     1      44.369   3.034   9.318  0.00  0.00    +0.000 C 
BRANCH  11  12
ATOM     12  C   UNL     1      45.499   2.563   8.418  0.00  0.00    +0.000 A 
ATOM     13  C   UNL     1      46.145   3.468   7.575  0.00  0.00    +0.000 A 
ATOM     14  C   UNL     1      47.198   3.022   6.782  0.00  0.00    +0.000 A 
ATOM     15  C   UNL     1      47.577   1.687   6.846  0.00  0.00    +0.000 A 
ATOM     16  C   UNL     1      46.883   0.853   7.705  0.00  0.00    +0.000 A 
ATOM     17  N   UNL     1      45.859   1.256   8.491  0.00  0.00    +0.000 NA
ENDBRANCH  11  12
ENDBRANCH   9  11
ENDBRANCH   8   9
ENDBRANCH   6   8
ENDBRANCH   1   2
BRANCH   1  20
ATOM     18  O   UNL     1      46.611   3.339  17.265  0.00  0.00    +0.000 OA
ATOM     19  C   UNL     1      47.486   3.909  16.618  0.00  0.00    +0.000 C 
ATOM     20  N   UNL     1      47.346   4.204  15.287  0.00  0.00    +0.000 N 
ATOM     21  H   UNL     1      48.154   4.506  14.755  0.00  0.00    +0.000 HD
BRANCH  19  22
ATOM     22  C   UNL     1      48.725   4.373  17.254  0.00  0.00    +0.000 A 
ATOM     23  C   UNL     1      48.774   5.639  17.823  0.00  0.00    +0.000 A 
ATOM     24  S   UNL     1      50.290   6.022  18.504  0.00  0.00    +0.000 S 
ATOM     25  C   UNL     1      50.920   4.494  18.099  0.00  0.00    +0.000 A 
ATOM     26  N   UNL     1      52.192   4.150  18.438  0.00  0.00    +0.000 NA
ATOM     27  C   UNL     1      52.525   2.948  18.107  0.00  0.00    +0.000 A 
ATOM     28  N   UNL     1      51.708   2.062  17.455  0.00  0.00    +0.000 N 
ATOM     29  C   UNL     1      50.447   2.393  17.022  0.00  0.00    +0.000 A 
ATOM     30  O   UNL     1      49.800   1.627  16.317  0.00  0.00    +0.000 OA
ATOM     31  C   UNL     1      49.998   3.715  17.423  0.00  0.00    +0.000 A 
ATOM     32  H   UNL     1      52.042   1.147  17.194  0.00  0.00    +0.000 HD
ENDBRANCH  19  22
ENDBRANCH   1  20
TORSDOF 7
ENDMDL
MODEL 2
REMARK VINA RESULT:    -8.760      2.000      2.948
REMARK INTER + INTRA:         -13.219
REMARK INTER:                 -11.821
REMARK INTRA:                  -1.398
REMARK UNBOUND:                -0.874
REMARK  Name = 
REMARK  7 active torsions:
REMARK  status: ('A' for Active; 'I' for Inactive)
REMARK    1  A    between atoms: C_2  and  C_20
REMARK    2  A    between atoms: N_3  and  C_4
REMARK    3  A    between atoms: C_4  and  C_5
REMARK    4  A    between atoms: C_9  and  C_10
REMARK    5  A    between atoms: C_10  and  N_11
REMARK    6  A    between atoms: N_11  and  C_12
REMARK    7  A    between atoms: C_12  and  C_13
REMARK                            x       y       z     vdW  Elec       q    Type
REMARK                         _______ _______ _______ _____ _____    ______ ____
ROOT
ATOM      1  C   UNL     1      47.395   6.761  11.756  0.00  0.00    +0.000 C 
ENDROOT
BRANCH   1   2
ATOM      2  C   UNL     1      45.926   6.453  11.630  0.00  0.00    +0.000 A 
ATOM      3  C   UNL     1      44.992   7.498  11.598  0.00  0.00    +0.000 A 
ATOM      4  C   UNL     1      43.636   7.227  11.437  0.00  0.00    +0.000 A 
ATOM      5  C   UNL     1      43.200   5.910  11.301  0.00  0.00    +0.000 A 
ATOM      6  C   UNL     1      44.114   4.845  11.334  0.00  0.00    +0.000 A 
ATOM      7  C   UNL     1      45.475   5.128  11.528  0.00  0.00    +0.000 A 
BRANCH   6   8
ATOM      8  C   UNL     1      43.640   3.430  11.088  0.00  0.00    +0.000 C 
BRANCH   8   9
ATOM      9  N   UNL     1      44.776   2.596  10.705  0.00  0.00    +0.000 NA
ATOM     10  H   UNL     1      44.968   1.937  11.460  0.00  0.00    +0.000 HD
BRANCH   9  11
ATOM     11  C   UNL     1      44.520   1.832   9.482  0.00  0.00    +0.000 C 
BRANCH  11  12
ATOM     12  C   UNL     1      45.613   2.056   8.450  0.00  0.00    +0.000 A 
ATOM     13  C   UNL     1      45.819   3.328   7.916  0.00  0.00    +0.000 A 
ATOM     14  C   UNL     1      46.845   3.518   6.995  0.00  0.00    +0.000 A 
ATOM     15  C   UNL     1      47.636   2.436   6.629  0.00  0.00    +0.000 A 
ATOM     16  C   UNL     1      47.364   1.206   7.203  0.00  0.00    +0.000 A 
ATOM     17  N   UNL     1      46.379   0.990   8.102  0.00  0.00    +0.000 NA
ENDBRANCH  11  12
ENDBRANCH   9  11
ENDBRANCH   8   9
ENDBRANCH   6   8
ENDBRANCH   1   2
BRANCH   1  20
ATOM     18  O   UNL     1      47.743   8.301  14.088  0.00  0.00    +0.000 OA
ATOM     19  C   UNL     1      48.043   7.110  14.109  0.00  0.00    +0.000 C 
ATOM     20  N   UNL     1      47.929   6.301  13.010  0.00  0.00    +0.000 N 
ATOM     21  H   UNL     1      48.013   5.296  13.119  0.00  0.00    +0.000 HD
BRANCH  19  22
ATOM     22  C   UNL     1      48.609   6.488  15.312  0.00  0.00    +0.000 A 
ATOM     23  C   UNL     1      49.693   7.080  15.947  0.00  0.00    +0.000 A 
ATOM     24  S   UNL     1      50.233   6.220  17.317  0.00  0.00    +0.000 S 
ATOM     25  C   UNL     1      49.012   5.050  17.134  0.00  0.00    +0.000 A 
ATOM     26  N   UNL     1      48.886   4.025  18.019  0.00  0.00    +0.000 NA
ATOM     27  C   UNL     1      47.892   3.237  17.784  0.00  0.00    +0.000 A 
ATOM     28  N   UNL     1      47.019   3.369  16.735  0.00  0.00    +0.000 N 
ATOM     29  C   UNL     1      47.157   4.338  15.771  0.00  0.00    +0.000 A 
ATOM     30  O   UNL     1      46.448   4.341  14.772  0.00  0.00    +0.000 OA
ATOM     31  C   UNL     1      48.224   5.292  16.022  0.00  0.00    +0.000 A 
ATOM     32  H   UNL     1      46.283   2.697  16.588  0.00  0.00    +0.000 HD
ENDBRANCH  19  22
ENDBRANCH   1  20
TORSDOF 7
ENDMDL
MODEL 3
REMARK VINA RESULT:    -8.716      1.412      1.757
REMARK INTER + INTRA:         -13.157
REMARK INTER:                 -12.143
REMARK INTRA:                  -1.014
REMARK UNBOUND:                -0.874
REMARK  Name = 
REMARK  7 active torsions:
REMARK  status: ('A' for Active; 'I' for Inactive)
REMARK    1  A    between atoms: C_2  and  C_20
REMARK    2  A    between atoms: N_3  and  C_4
REMARK    3  A    between atoms: C_4  and  C_5
REMARK    4  A    between atoms: C_9  and  C_10
REMARK    5  A    between atoms: C_10  and  N_11
REMARK    6  A    between atoms: N_11  and  C_12
REMARK    7  A    between atoms: C_12  and  C_13
REMARK                            x       y       z     vdW  Elec       q    Type
REMARK                         _______ _______ _______ _____ _____    ______ ____
ROOT
ATOM      1  C   UNL     1      46.931   3.881  14.621  0.00  0.00    +0.000 C 
ENDROOT
BRANCH   1   2
ATOM      2  C   UNL     1      46.545   4.773  13.471  0.00  0.00    +0.000 A 
ATOM      3  C   UNL     1      47.425   5.773  13.035  0.00  0.00    +0.000 A 
ATOM      4  C   UNL     1      47.098   6.574  11.943  0.00  0.00    +0.000 A 
ATOM      5  C   UNL     1      45.891   6.379  11.273  0.00  0.00    +0.000 A 
ATOM      6  C   UNL     1      44.991   5.388  11.692  0.00  0.00    +0.000 A 
ATOM      7  C   UNL     1      45.316   4.607  12.813  0.00  0.00    +0.000 A 
BRANCH   6   8
ATOM      8  C   UNL     1      43.730   5.122  10.899  0.00  0.00    +0.000 C 
BRANCH   8   9
ATOM      9  N   UNL     1      44.083   4.543   9.605  0.00  0.00    +0.000 NA
ATOM     10  H   UNL     1      44.905   5.026   9.243  0.00  0.00    +0.000 HD
BRANCH   9  11
ATOM     11  C   UNL     1      44.394   3.115   9.699  0.00  0.00    +0.000 C 
BRANCH  11  12
ATOM     12  C   UNL     1      45.419   2.702   8.656  0.00  0.00    +0.000 A 
ATOM     13  C   UNL     1      45.944   3.652   7.778  0.00  0.00    +0.000 A 
ATOM     14  C   UNL     1      46.904   3.259   6.850  0.00  0.00    +0.000 A 
ATOM     15  C   UNL     1      47.313   1.931   6.819  0.00  0.00    +0.000 A 
ATOM     16  C   UNL     1      46.741   1.051   7.722  0.00  0.00    +0.000 A 
ATOM     17  N   UNL     1      45.810   1.402   8.636  0.00  0.00    +0.000 NA
ENDBRANCH  11  12
ENDBRANCH   9  11
ENDBRANCH   8   9
ENDBRANCH   6   8
ENDBRANCH   1   2
BRANCH   1  20
ATOM     18  O   UNL     1      46.612   3.204  17.336  0.00  0.00    +0.000 OA
ATOM     19  C   UNL     1      47.224   4.229  17.044  0.00  0.00    +0.000 C 
ATOM     20  N   UNL     1      47.397   4.642  15.750  0.00  0.00    +0.000 N 
ATOM     21  H   UNL     1      48.057   5.385  15.547  0.00  0.00    +0.000 HD
BRANCH  19  22
ATOM     22  C   UNL     1      47.758   5.119  18.082  0.00  0.00    +0.000 A 
ATOM     23  C   UNL     1      46.885   5.801  18.919  0.00  0.00    +0.000 A 
ATOM     24  S   UNL     1      47.671   6.801  20.056  0.00  0.00    +0.000 S 
ATOM     25  C   UNL     1      49.206   6.325  19.496  0.00  0.00    +0.000 A 
ATOM     26  N   UNL     1      50.341   6.798  20.078  0.00  0.00    +0.000 NA
ATOM     27  C   UNL     1      51.433   6.322  19.582  0.00  0.00    +0.000 A 
ATOM     28  N   UNL     1      51.496   5.426  18.546  0.00  0.00    +0.000 N 
ATOM     29  C   UNL     1      50.381   4.985  17.875  0.00  0.00    +0.000 A 
ATOM     30  O   UNL     1      50.482   4.299  16.865  0.00  0.00    +0.000 OA
ATOM     31  C   UNL     1      49.120   5.442  18.434  0.00  0.00    +0.000 A 
ATOM     32  H   UNL     1      52.385   5.120  18.182  0.00  0.00    +0.000 HD
ENDBRANCH  19  22
ENDBRANCH   1  20
TORSDOF 7
ENDMDL
MODEL 4
REMARK VINA RESULT:    -8.097      2.113      2.646
REMARK INTER + INTRA:         -12.284
REMARK INTER:                 -11.532
REMARK INTRA:                  -0.752
REMARK UNBOUND:                -0.874
REMARK  Name = 
REMARK  7 active torsions:
REMARK  status: ('A' for Active; 'I' for Inactive)
REMARK    1  A    between atoms: C_2  and  C_20
REMARK    2  A    between atoms: N_3  and  C_4
REMARK    3  A    between atoms: C_4  and  C_5
REMARK    4  A    between atoms: C_9  and  C_10
REMARK    5  A    between atoms: C_10  and  N_11
REMARK    6  A    between atoms: N_11  and  C_12
REMARK    7  A    between atoms: C_12  and  C_13
REMARK                            x       y       z     vdW  Elec       q    Type
REMARK                         _______ _______ _______ _____ _____    ______ ____
ROOT
ATOM      1  C   UNL     1      48.059   6.161  13.705  0.00  0.00    +0.000 C 
ENDROOT
BRANCH   1   2
ATOM      2  C   UNL     1      46.704   6.096  13.052  0.00  0.00    +0.000 A 
ATOM      3  C   UNL     1      46.072   7.275  12.633  0.00  0.00    +0.000 A 
ATOM      4  C   UNL     1      44.839   7.224  11.987  0.00  0.00    +0.000 A 
ATOM      5  C   UNL     1      44.229   5.993  11.748  0.00  0.00    +0.000 A 
ATOM      6  C   UNL     1      44.839   4.798  12.161  0.00  0.00    +0.000 A 
ATOM      7  C   UNL     1      46.066   4.864  12.839  0.00  0.00    +0.000 A 
BRANCH   6   8
ATOM      8  C   UNL     1      44.215   3.466  11.810  0.00  0.00    +0.000 C 
BRANCH   8   9
ATOM      9  N   UNL     1      45.060   2.772  10.842  0.00  0.00    +0.000 NA
ATOM     10  H   UNL     1      45.208   1.814  11.164  0.00  0.00    +0.000 HD
BRANCH   9  11
ATOM     11  C   UNL     1      44.456   2.720   9.509  0.00  0.00    +0.000 C 
BRANCH  11  12
ATOM     12  C   UNL     1      45.496   2.426   8.441  0.00  0.00    +0.000 A 
ATOM     13  C   UNL     1      45.869   3.421   7.536  0.00  0.00    +0.000 A 
ATOM     14  C   UNL     1      46.846   3.141   6.586  0.00  0.00    +0.000 A 
ATOM     15  C   UNL     1      47.423   1.878   6.559  0.00  0.00    +0.000 A 
ATOM     16  C   UNL     1      46.995   0.945   7.489  0.00  0.00    +0.000 A 
ATOM     17  N   UNL     1      46.052   1.188   8.426  0.00  0.00    +0.000 NA
ENDBRANCH  11  12
ENDBRANCH   9  11
ENDBRANCH   8   9
ENDBRANCH   6   8
ENDBRANCH   1   2
BRANCH   1  20
ATOM     18  O   UNL     1      50.200   6.534  15.496  0.00  0.00    +0.000 OA
ATOM     19  C   UNL     1      49.049   6.581  15.924  0.00  0.00    +0.000 C 
ATOM     20  N   UNL     1      47.956   6.381  15.123  0.00  0.00    +0.000 N 
ATOM     21  H   UNL     1      47.032   6.607  15.475  0.00  0.00    +0.000 HD
BRANCH  19  22
ATOM     22  C   UNL     1      48.774   6.791  17.350  0.00  0.00    +0.000 A 
ATOM     23  C   UNL     1      48.473   8.065  17.813  0.00  0.00    +0.000 A 
ATOM     24  S   UNL     1      48.196   8.133  19.494  0.00  0.00    +0.000 S 
ATOM     25  C   UNL     1      48.427   6.454  19.656  0.00  0.00    +0.000 A 
ATOM     26  N   UNL     1      48.294   5.843  20.864  0.00  0.00    +0.000 NA
ATOM     27  C   UNL     1      48.456   4.563  20.834  0.00  0.00    +0.000 A 
ATOM     28  N   UNL     1      48.752   3.838  19.710  0.00  0.00    +0.000 N 
ATOM     29  C   UNL     1      48.976   4.422  18.486  0.00  0.00    +0.000 A 
ATOM     30  O   UNL     1      49.380   3.762  17.536  0.00  0.00    +0.000 OA
ATOM     31  C   UNL     1      48.746   5.856  18.449  0.00  0.00    +0.000 A 
ATOM     32  H   UNL     1      48.900   2.842  19.761  0.00  0.00    +0.000 HD
ENDBRANCH  19  22
ENDBRANCH   1  20
TORSDOF 7
ENDMDL
MODEL 5
REMARK VINA RESULT:    -7.668      2.947      4.039
REMARK INTER + INTRA:         -11.680
REMARK INTER:                 -10.791
REMARK INTRA:                  -0.890
REMARK UNBOUND:                -0.874
REMARK  Name = 
REMARK  7 active torsions:
REMARK  status: ('A' for Active; 'I' for Inactive)
REMARK    1  A    between atoms: C_2  and  C_20
REMARK    2  A    between atoms: N_3  and  C_4
REMARK    3  A    between atoms: C_4  and  C_5
REMARK    4  A    between atoms: C_9  and  C_10
REMARK    5  A    between atoms: C_10  and  N_11
REMARK    6  A    between atoms: N_11  and  C_12
REMARK    7  A    between atoms: C_12  and  C_13
REMARK                            x       y       z     vdW  Elec       q    Type
REMARK                         _______ _______ _______ _____ _____    ______ ____
ROOT
ATOM      1  C   UNL     1      47.445   4.413  14.890  0.00  0.00    +0.000 C 
ENDROOT
BRANCH   1   2
ATOM      2  C   UNL     1      46.769   4.984  13.672  0.00  0.00    +0.000 A 
ATOM      3  C   UNL     1      47.162   6.235  13.176  0.00  0.00    +0.000 A 
ATOM      4  C   UNL     1      46.576   6.753  12.023  0.00  0.00    +0.000 A 
ATOM      5  C   UNL     1      45.595   6.024  11.353  0.00  0.00    +0.000 A 
ATOM      6  C   UNL     1      45.180   4.771  11.832  0.00  0.00    +0.000 A 
ATOM      7  C   UNL     1      45.755   4.273  13.011  0.00  0.00    +0.000 A 
BRANCH   6   8
ATOM      8  C   UNL     1      44.186   3.948  11.043  0.00  0.00    +0.000 C 
BRANCH   8   9
ATOM      9  N   UNL     1      44.771   2.647  10.730  0.00  0.00    +0.000 NA
ATOM     10  H   UNL     1      44.433   1.963  11.408  0.00  0.00    +0.000 HD
BRANCH   9  11
ATOM     11  C   UNL     1      44.410   2.181   9.389  0.00  0.00    +0.000 C 
BRANCH  11  12
ATOM     12  C   UNL     1      45.578   2.304   8.426  0.00  0.00    +0.000 A 
ATOM     13  C   UNL     1      46.286   1.166   8.036  0.00  0.00    +0.000 A 
ATOM     14  C   UNL     1      47.333   1.297   7.129  0.00  0.00    +0.000 A 
ATOM     15  C   UNL     1      47.650   2.557   6.637  0.00  0.00    +0.000 A 
ATOM     16  C   UNL     1      46.902   3.636   7.077  0.00  0.00    +0.000 A 
ATOM     17  N   UNL     1      45.877   3.541   7.953  0.00  0.00    +0.000 NA
ENDBRANCH  11  12
ENDBRANCH   9  11
ENDBRANCH   8   9
ENDBRANCH   6   8
ENDBRANCH   1   2
BRANCH   1  20
ATOM     18  O   UNL     1      49.668   5.776  15.955  0.00  0.00    +0.000 OA
ATOM     19  C   UNL     1      48.555   5.983  16.434  0.00  0.00    +0.000 C 
ATOM     20  N   UNL     1      47.430   5.340  15.991  0.00  0.00    +0.000 N 
ATOM     21  H   UNL     1      46.518   5.670  16.285  0.00  0.00    +0.000 HD
BRANCH  19  22
ATOM     22  C   UNL     1      48.371   6.896  17.568  0.00  0.00    +0.000 A 
ATOM     23  C   UNL     1      48.408   6.401  18.864  0.00  0.00    +0.000 A 
ATOM     24  S   UNL     1      48.162   7.593  20.058  0.00  0.00    +0.000 S 
ATOM     25  C   UNL     1      48.039   8.821  18.886  0.00  0.00    +0.000 A 
ATOM     26  N   UNL     1      47.856  10.119  19.249  0.00  0.00    +0.000 NA
ATOM     27  C   UNL     1      47.822  10.948  18.261  0.00  0.00    +0.000 A 
ATOM     28  N   UNL     1      47.940  10.599  16.941  0.00  0.00    +0.000 N 
ATOM     29  C   UNL     1      48.044   9.294  16.524  0.00  0.00    +0.000 A 
ATOM     30  O   UNL     1      48.002   9.005  15.334  0.00  0.00    +0.000 OA
ATOM     31  C   UNL     1      48.149   8.322  17.599  0.00  0.00    +0.000 A 
ATOM     32  H   UNL     1      47.871  11.294  16.215  0.00  0.00    +0.000 HD
ENDBRANCH  19  22
ENDBRANCH   1  20
TORSDOF 7
ENDMDL
MODEL 6
REMARK VINA RESULT:    -7.578      3.199      3.795
REMARK INTER + INTRA:         -11.553
REMARK INTER:                 -10.476
REMARK INTRA:                  -1.077
REMARK UNBOUND:                -0.874
REMARK  Name = 
REMARK  7 active torsions:
REMARK  status: ('A' for Active; 'I' for Inactive)
REMARK    1  A    between atoms: C_2  and  C_20
REMARK    2  A    between atoms: N_3  and  C_4
REMARK    3  A    between atoms: C_4  and  C_5
REMARK    4  A    between atoms: C_9  and  C_10
REMARK    5  A    between atoms: C_10  and  N_11
REMARK    6  A    between atoms: N_11  and  C_12
REMARK    7  A    between atoms: C_12  and  C_13
REMARK                            x       y       z     vdW  Elec       q    Type
REMARK                         _______ _______ _______ _____ _____    ______ ____
ROOT
ATOM      1  C   UNL     1      46.932   5.040  14.509  0.00  0.00    +0.000 C 
ENDROOT
BRANCH   1   2
ATOM      2  C   UNL     1      46.008   5.276  13.343  0.00  0.00    +0.000 A 
ATOM      3  C   UNL     1      45.996   6.522  12.701  0.00  0.00    +0.000 A 
ATOM      4  C   UNL     1      45.179   6.738  11.594  0.00  0.00    +0.000 A 
ATOM      5  C   UNL     1      44.371   5.708  11.114  0.00  0.00    +0.000 A 
ATOM      6  C   UNL     1      44.361   4.453  11.741  0.00  0.00    +0.000 A 
ATOM      7  C   UNL     1      45.165   4.256  12.875  0.00  0.00    +0.000 A 
BRANCH   6   8
ATOM      8  C   UNL     1      43.555   3.316  11.153  0.00  0.00    +0.000 C 
BRANCH   8   9
ATOM      9  N   UNL     1      43.850   3.196   9.728  0.00  0.00    +0.000 NA
ATOM     10  H   UNL     1      44.473   3.958   9.457  0.00  0.00    +0.000 HD
BRANCH   9  11
ATOM     11  C   UNL     1      44.507   1.928   9.399  0.00  0.00    +0.000 C 
BRANCH  11  12
ATOM     12  C   UNL     1      45.603   2.124   8.366  0.00  0.00    +0.000 A 
ATOM     13  C   UNL     1      45.769   3.365   7.749  0.00  0.00    +0.000 A 
ATOM     14  C   UNL     1      46.799   3.532   6.829  0.00  0.00    +0.000 A 
ATOM     15  C   UNL     1      47.635   2.459   6.545  0.00  0.00    +0.000 A 
ATOM     16  C   UNL     1      47.402   1.260   7.198  0.00  0.00    +0.000 A 
ATOM     17  N   UNL     1      46.413   1.068   8.099  0.00  0.00    +0.000 NA
ENDBRANCH  11  12
ENDBRANCH   9  11
ENDBRANCH   8   9
ENDBRANCH   6   8
ENDBRANCH   1   2
BRANCH   1  20
ATOM     18  O   UNL     1      48.915   5.243  16.498  0.00  0.00    +0.000 OA
ATOM     19  C   UNL     1      48.773   6.167  15.701  0.00  0.00    +0.000 C 
ATOM     20  N   UNL     1      47.814   6.157  14.723  0.00  0.00    +0.000 N 
ATOM     21  H   UNL     1      47.850   6.847  13.981  0.00  0.00    +0.000 HD
BRANCH  19  22
ATOM     22  C   UNL     1      49.591   7.382  15.789  0.00  0.00    +0.000 A 
ATOM     23  C   UNL     1      49.880   7.928  17.032  0.00  0.00    +0.000 A 
ATOM     24  S   UNL     1      50.827   9.344  16.953  0.00  0.00    +0.000 S 
ATOM     25  C   UNL     1      50.919   9.253  15.256  0.00  0.00    +0.000 A 
ATOM     26  N   UNL     1      51.631  10.168  14.544  0.00  0.00    +0.000 NA
ATOM     27  C   UNL     1      51.650   9.954  13.271  0.00  0.00    +0.000 A 
ATOM     28  N   UNL     1      51.011   8.919  12.642  0.00  0.00    +0.000 N 
ATOM     29  C   UNL     1      50.215   8.020  13.310  0.00  0.00    +0.000 A 
ATOM     30  O   UNL     1      49.544   7.195  12.701  0.00  0.00    +0.000 OA
ATOM     31  C   UNL     1      50.208   8.177  14.754  0.00  0.00    +0.000 A 
ATOM     32  H   UNL     1      51.038   8.828  11.638  0.00  0.00    +0.000 HD
ENDBRANCH  19  22
ENDBRANCH   1  20
TORSDOF 7
ENDMDL
MODEL 7
REMARK VINA RESULT:    -7.321      3.626      9.710
REMARK INTER + INTRA:         -11.190
REMARK INTER:                  -9.837
REMARK INTRA:                  -1.353
REMARK UNBOUND:                -0.874
REMARK  Name = 
REMARK  7 active torsions:
REMARK  status: ('A' for Active; 'I' for Inactive)
REMARK    1  A    between atoms: C_2  and  C_20
REMARK    2  A    between atoms: N_3  and  C_4
REMARK    3  A    between atoms: C_4  and  C_5
REMARK    4  A    between atoms: C_9  and  C_10
REMARK    5  A    between atoms: C_10  and  N_11
REMARK    6  A    between atoms: N_11  and  C_12
REMARK    7  A    between atoms: C_12  and  C_13
REMARK                            x       y       z     vdW  Elec       q    Type
REMARK                         _______ _______ _______ _____ _____    ______ ____
ROOT
ATOM      1  C   UNL     1      47.301   3.436  16.883  0.00  0.00    +0.000 C 
ENDROOT
BRANCH   1   2
ATOM      2  C   UNL     1      48.781   3.503  17.156  0.00  0.00    +0.000 A 
ATOM      3  C   UNL     1      49.550   2.332  17.136  0.00  0.00    +0.000 A 
ATOM      4  C   UNL     1      50.926   2.387  17.341  0.00  0.00    +0.000 A 
ATOM      5  C   UNL     1      51.548   3.615  17.563  0.00  0.00    +0.000 A 
ATOM      6  C   UNL     1      50.801   4.802  17.592  0.00  0.00    +0.000 A 
ATOM      7  C   UNL     1      49.410   4.731  17.415  0.00  0.00    +0.000 A 
BRANCH   6   8
ATOM      8  C   UNL     1      51.499   6.136  17.737  0.00  0.00    +0.000 C 
BRANCH   8   9
ATOM      9  N   UNL     1      52.004   6.276  19.100  0.00  0.00    +0.000 NA
ATOM     10  H   UNL     1      52.980   6.573  19.059  0.00  0.00    +0.000 HD
BRANCH   9  11
ATOM     11  C   UNL     1      51.255   7.270  19.873  0.00  0.00    +0.000 C 
BRANCH  11  12
ATOM     12  C   UNL     1      49.953   6.693  20.402  0.00  0.00    +0.000 A 
ATOM     13  C   UNL     1      49.953   5.470  21.075  0.00  0.00    +0.000 A 
ATOM     14  C   UNL     1      48.754   4.974  21.579  0.00  0.00    +0.000 A 
ATOM     15  C   UNL     1      47.588   5.707  21.398  0.00  0.00    +0.000 A 
ATOM     16  C   UNL     1      47.672   6.909  20.716  0.00  0.00    +0.000 A 
ATOM     17  N   UNL     1      48.821   7.419  20.218  0.00  0.00    +0.000 NA
ENDBRANCH  11  12
ENDBRANCH   9  11
ENDBRANCH   8   9
ENDBRANCH   6   8
ENDBRANCH   1   2
BRANCH   1  20
ATOM     18  O   UNL     1      47.276   3.035  14.096  0.00  0.00    +0.000 OA
ATOM     19  C   UNL     1      46.892   4.111  14.547  0.00  0.00    +0.000 C 
ATOM     20  N   UNL     1      46.900   4.394  15.888  0.00  0.00    +0.000 N 
ATOM     21  H   UNL     1      46.410   5.214  16.228  0.00  0.00    +0.000 HD
BRANCH  19  22
ATOM     22  C   UNL     1      46.455   5.197  13.662  0.00  0.00    +0.000 A 
ATOM     23  C   UNL     1      47.298   6.276  13.430  0.00  0.00    +0.000 A 
ATOM     24  S   UNL     1      46.630   7.453  12.391  0.00  0.00    +0.000 S 
ATOM     25  C   UNL     1      45.208   6.541  12.182  0.00  0.00    +0.000 A 
ATOM     26  N   UNL     1      44.212   6.975  11.363  0.00  0.00    +0.000 NA
ATOM     27  C   UNL     1      43.212   6.166  11.265  0.00  0.00    +0.000 A 
ATOM     28  N   UNL     1      43.108   4.968  11.922  0.00  0.00    +0.000 N 
ATOM     29  C   UNL     1      44.050   4.528  12.821  0.00  0.00    +0.000 A 
ATOM     30  O   UNL     1      43.858   3.524  13.497  0.00  0.00    +0.000 OA
ATOM     31  C   UNL     1      45.228   5.372  12.922  0.00  0.00    +0.000 A 
ATOM     32  H   UNL     1      42.282   4.398  11.829  0.00  0.00    +0.000 HD
ENDBRANCH  19  22
ENDBRANCH   1  20
TORSDOF 7
ENDMDL
MODEL 8
REMARK VINA RESULT:    -7.291      3.172      3.966
REMARK INTER + INTRA:         -11.149
REMARK INTER:                 -10.306
REMARK INTRA:                  -0.843
REMARK UNBOUND:                -0.874
REMARK  Name = 
REMARK  7 active torsions:
REMARK  status: ('A' for Active; 'I' for Inactive)
REMARK    1  A    between atoms: C_2  and  C_20
REMARK    2  A    between atoms: N_3  and  C_4
REMARK    3  A    between atoms: C_4  and  C_5
REMARK    4  A    between atoms: C_9  and  C_10
REMARK    5  A    between atoms: C_10  and  N_11
REMARK    6  A    between atoms: N_11  and  C_12
REMARK    7  A    between atoms: C_12  and  C_13
REMARK                            x       y       z     vdW  Elec       q    Type
REMARK                         _______ _______ _______ _____ _____    ______ ____
ROOT
ATOM      1  C   UNL     1      47.013   5.131  14.324  0.00  0.00    +0.000 C 
ENDROOT
BRANCH   1   2
ATOM      2  C   UNL     1      45.939   5.336  13.288  0.00  0.00    +0.000 A 
ATOM      3  C   UNL     1      45.685   6.621  12.789  0.00  0.00    +0.000 A 
ATOM      4  C   UNL     1      44.726   6.816  11.798  0.00  0.00    +0.000 A 
ATOM      5  C   UNL     1      44.016   5.728  11.293  0.00  0.00    +0.000 A 
ATOM      6  C   UNL     1      44.248   4.432  11.778  0.00  0.00    +0.000 A 
ATOM      7  C   UNL     1      45.195   4.251  12.799  0.00  0.00    +0.000 A 
BRANCH   6   8
ATOM      8  C   UNL     1      43.542   3.249  11.154  0.00  0.00    +0.000 C 
BRANCH   8   9
ATOM      9  N   UNL     1      43.857   3.190   9.729  0.00  0.00    +0.000 NA
ATOM     10  H   UNL     1      44.509   3.943   9.506  0.00  0.00    +0.000 HD
BRANCH   9  11
ATOM     11  C   UNL     1      44.476   1.919   9.347  0.00  0.00    +0.000 C 
BRANCH  11  12
ATOM     12  C   UNL     1      45.593   2.129   8.338  0.00  0.00    +0.000 A 
ATOM     13  C   UNL     1      45.755   3.372   7.723  0.00  0.00    +0.000 A 
ATOM     14  C   UNL     1      46.803   3.552   6.826  0.00  0.00    +0.000 A 
ATOM     15  C   UNL     1      47.660   2.490   6.562  0.00  0.00    +0.000 A 
ATOM     16  C   UNL     1      47.429   1.289   7.211  0.00  0.00    +0.000 A 
ATOM     17  N   UNL     1      46.423   1.084   8.090  0.00  0.00    +0.000 NA
ENDBRANCH  11  12
ENDBRANCH   9  11
ENDBRANCH   8   9
ENDBRANCH   6   8
ENDBRANCH   1   2
BRANCH   1  20
ATOM     18  O   UNL     1      49.068   5.485  16.216  0.00  0.00    +0.000 OA
ATOM     19  C   UNL     1      48.807   6.401  15.440  0.00  0.00    +0.000 C 
ATOM     20  N   UNL     1      47.805   6.318  14.511  0.00  0.00    +0.000 N 
ATOM     21  H   UNL     1      47.744   7.016  13.779  0.00  0.00    +0.000 HD
BRANCH  19  22
ATOM     22  C   UNL     1      49.521   7.682  15.506  0.00  0.00    +0.000 A 
ATOM     23  C   UNL     1      50.363   8.055  14.467  0.00  0.00    +0.000 A 
ATOM     24  S   UNL     1      51.123   9.562  14.711  0.00  0.00    +0.000 S 
ATOM     25  C   UNL     1      50.320   9.789  16.194  0.00  0.00    +0.000 A 
ATOM     26  N   UNL     1      50.502  10.923  16.922  0.00  0.00    +0.000 NA
ATOM     27  C   UNL     1      49.800  10.981  18.004  0.00  0.00    +0.000 A 
ATOM     28  N   UNL     1      48.943  10.002  18.433  0.00  0.00    +0.000 N 
ATOM     29  C   UNL     1      48.790   8.806  17.774  0.00  0.00    +0.000 A 
ATOM     30  O   UNL     1      48.128   7.896  18.261  0.00  0.00    +0.000 OA
ATOM     31  C   UNL     1      49.510   8.713  16.516  0.00  0.00    +0.000 A 
ATOM     32  H   UNL     1      48.450  10.094  19.307  0.00  0.00    +0.000 HD
ENDBRANCH  19  22
ENDBRANCH   1  20
TORSDOF 7
ENDMDL
MODEL 9
REMARK VINA RESULT:    -7.098      4.066      8.741
REMARK INTER + INTRA:         -10.876
REMARK INTER:                  -8.518
REMARK INTRA:                  -2.358
REMARK UNBOUND:                -0.874
REMARK  Name = 
REMARK  7 active torsions:
REMARK  status: ('A' for Active; 'I' for Inactive)
REMARK    1  A    between atoms: C_2  and  C_20
REMARK    2  A    between atoms: N_3  and  C_4
REMARK    3  A    between atoms: C_4  and  C_5
REMARK    4  A    between atoms: C_9  and  C_10
REMARK    5  A    between atoms: C_10  and  N_11
REMARK    6  A    between atoms: N_11  and  C_12
REMARK    7  A    between atoms: C_12  and  C_13
REMARK                            x       y       z     vdW  Elec       q    Type
REMARK                         _______ _______ _______ _____ _____    ______ ____
ROOT
ATOM      1  C   UNL     1      47.278   3.568  16.925  0.00  0.00    +0.000 C 
ENDROOT
BRANCH   1   2
ATOM      2  C   UNL     1      48.752   3.364  17.158  0.00  0.00    +0.000 A 
ATOM      3  C   UNL     1      49.307   2.082  17.046  0.00  0.00    +0.000 A 
ATOM      4  C   UNL     1      50.676   1.888  17.215  0.00  0.00    +0.000 A 
ATOM      5  C   UNL     1      51.503   2.975  17.493  0.00  0.00    +0.000 A 
ATOM      6  C   UNL     1      50.972   4.268  17.615  0.00  0.00    +0.000 A 
ATOM      7  C   UNL     1      49.587   4.447  17.473  0.00  0.00    +0.000 A 
BRANCH   6   8
ATOM      8  C   UNL     1      51.893   5.451  17.819  0.00  0.00    +0.000 C 
BRANCH   8   9
ATOM      9  N   UNL     1      51.502   6.533  16.919  0.00  0.00    +0.000 NA
ATOM     10  H   UNL     1      50.559   6.348  16.574  0.00  0.00    +0.000 HD
BRANCH   9  11
ATOM     11  C   UNL     1      51.497   7.838  17.585  0.00  0.00    +0.000 C 
BRANCH  11  12
ATOM     12  C   UNL     1      50.086   8.384  17.724  0.00  0.00    +0.000 A 
ATOM     13  C   UNL     1      49.286   7.986  18.797  0.00  0.00    +0.000 A 
ATOM     14  C   UNL     1      48.008   8.522  18.923  0.00  0.00    +0.000 A 
ATOM     15  C   UNL     1      47.560   9.436  17.977  0.00  0.00    +0.000 A 
ATOM     16  C   UNL     1      48.413   9.775  16.941  0.00  0.00    +0.000 A 
ATOM     17  N   UNL     1      49.661   9.276  16.794  0.00  0.00    +0.000 NA
ENDBRANCH  11  12
ENDBRANCH   9  11
ENDBRANCH   8   9
ENDBRANCH   6   8
ENDBRANCH   1   2
BRANCH   1  20
ATOM     18  O   UNL     1      47.250   3.140  14.141  0.00  0.00    +0.000 OA
ATOM     19  C   UNL     1      47.011   4.265  14.574  0.00  0.00    +0.000 C 
ATOM     20  N   UNL     1      47.033   4.560  15.912  0.00  0.00    +0.000 N 
ATOM     21  H   UNL     1      46.655   5.444  16.234  0.00  0.00    +0.000 HD
BRANCH  19  22
ATOM     22  C   UNL     1      46.747   5.390  13.670  0.00  0.00    +0.000 A 
ATOM     23  C   UNL     1      45.624   5.368  12.853  0.00  0.00    +0.000 A 
ATOM     24  S   UNL     1      45.477   6.744  11.857  0.00  0.00    +0.000 S 
ATOM     25  C   UNL     1      46.887   7.437  12.513  0.00  0.00    +0.000 A 
ATOM     26  N   UNL     1      47.316   8.664  12.110  0.00  0.00    +0.000 NA
ATOM     27  C   UNL     1      48.373   9.085  12.719  0.00  0.00    +0.000 A 
ATOM     28  N   UNL     1      49.049   8.387  13.685  0.00  0.00    +0.000 N 
ATOM     29  C   UNL     1      48.701   7.113  14.064  0.00  0.00    +0.000 A 
ATOM     30  O   UNL     1      49.410   6.463  14.823  0.00  0.00    +0.000 OA
ATOM     31  C   UNL     1      47.480   6.614  13.454  0.00  0.00    +0.000 A 
ATOM     32  H   UNL     1      49.890   8.760  14.098  0.00  0.00    +0.000 HD
ENDBRANCH  19  22
ENDBRANCH   1  20
TORSDOF 7
ENDMDL
