MODEL 1
REMARK VINA RESULT:    -7.862      0.000      0.000
REMARK INTER + INTRA:         -11.930
REMARK INTER:                 -11.079
REMARK INTRA:                  -0.852
REMARK UNBOUND:                -0.852
REMARK  Name = 
REMARK  7 active torsions:
REMARK  status: ('A' for Active; 'I' for Inactive)
REMARK    1  A    between atoms: C_2  and  C_3
REMARK    2  A    between atoms: C_4  and  C_5
REMARK    3  A    between atoms: C_9  and  C_10
REMARK    4  A    between atoms: C_10  and  C_11
REMARK    5  A    between atoms: C_11  and  N_12
REMARK    6  A    between atoms: N_12  and  C_13
REMARK    7  A    between atoms: C_16  and  C_17
REMARK                            x       y       z     vdW  Elec       q    Type
REMARK                         _______ _______ _______ _____ _____    ______ ____
ROOT
ATOM      1  N   UNL     1      43.636   3.737  10.432  0.00  0.00    +0.000 N 
ATOM      2  H   UNL     1      42.817   4.252  10.130  0.00  0.00    +0.000 HD
ENDROOT
BRANCH   1   3
ATOM      3  C   UNL     1      44.533   3.356   9.439  0.00  0.00    +0.000 A 
ATOM      4  C   UNL     1      44.924   2.027   9.229  0.00  0.00    +0.000 A 
ATOM      5  C   UNL     1      45.919   1.695   8.303  0.00  0.00    +0.000 A 
ATOM      6  C   UNL     1      46.555   2.691   7.561  0.00  0.00    +0.000 A 
ATOM      7  C   UNL     1      46.187   4.023   7.758  0.00  0.00    +0.000 A 
ATOM      8  C   UNL     1      45.189   4.346   8.692  0.00  0.00    +0.000 A 
BRANCH   6   9
ATOM      9  C   UNL     1      47.635   2.277   6.627  0.00  0.00    +0.000 C 
ATOM     10  N   UNL     1      47.841   3.057   5.519  0.00  0.00    +0.000 N 
ATOM     11  O   UNL     1      48.300   1.271   6.812  0.00  0.00    +0.000 OA
ATOM     12  H   UNL     1      47.180   3.753   5.208  0.00  0.00    +0.000 HD
ATOM     13  H   UNL     1      48.504   2.698   4.844  0.00  0.00    +0.000 HD
ENDBRANCH   6   9
ENDBRANCH   1   3
BRANCH   1  14
ATOM     14  C   UNL     1      43.559   3.022  11.701  0.00  0.00    +0.000 C 
BRANCH  14  15
ATOM     15  C   UNL     1      43.496   3.985  12.892  0.00  0.00    +0.000 C 
BRANCH  15  20
ATOM     16  C   UNL     1      45.739   7.078  12.960  0.00  0.00    +0.000 A 
ATOM     17  C   UNL     1      46.992   6.501  13.191  0.00  0.00    +0.000 A 
ATOM     18  C   UNL     1      47.115   5.116  13.293  0.00  0.00    +0.000 A 
ATOM     19  C   UNL     1      45.988   4.300  13.168  0.00  0.00    +0.000 A 
ATOM     20  C   UNL     1      44.726   4.863  12.935  0.00  0.00    +0.000 A 
ATOM     21  C   UNL     1      44.612   6.258  12.826  0.00  0.00    +0.000 A 
BRANCH  16  23
ATOM     22  C   UNL     1      44.923   9.127  11.896  0.00  0.00    +0.000 C 
ATOM     23  C   UNL     1      45.610   8.533  12.881  0.00  0.00    +0.000 C 
BRANCH  22  25
ATOM     24  N   UNL     1      44.818  11.899  11.701  0.00  0.00    +0.000 NA
ATOM     25  C   UNL     1      44.866  10.642  11.789  0.00  0.00    +0.000 C 
ENDBRANCH  22  25
ENDBRANCH  16  23
ENDBRANCH  15  20
ENDBRANCH  14  15
ENDBRANCH   1  14
TORSDOF 7
ENDMDL
MODEL 2
REMARK VINA RESULT:    -7.809      2.469      4.003
REMARK INTER + INTRA:         -11.856
REMARK INTER:                 -11.038
REMARK INTRA:                  -0.818
REMARK UNBOUND:                -0.852
REMARK  Name = 
REMARK  7 active torsions:
REMARK  status: ('A' for Active; 'I' for Inactive)
REMARK    1  A    between atoms: C_2  and  C_3
REMARK    2  A    between atoms: C_4  and  C_5
REMARK    3  A    between atoms: C_9  and  C_10
REMARK    4  A    between atoms: C_10  and  C_11
REMARK    5  A    between atoms: C_11  and  N_12
REMARK    6  A    between atoms: N_12  and  C_13
REMARK    7  A    between atoms: C_16  and  C_17
REMARK                            x       y       z     vdW  Elec       q    Type
REMARK                         _______ _______ _______ _____ _____    ______ ____
ROOT
ATOM      1  N   UNL     1      43.568   4.697   9.916  0.00  0.00    +0.000 N 
ATOM      2  H   UNL     1      42.878   5.146   9.324  0.00  0.00    +0.000 HD
ENDROOT
BRANCH   1   3
ATOM      3  C   UNL     1      44.583   3.999   9.270  0.00  0.00    +0.000 A 
ATOM      4  C   UNL     1      45.502   4.608   8.406  0.00  0.00    +0.000 A 
ATOM      5  C   UNL     1      46.432   3.857   7.679  0.00  0.00    +0.000 A 
ATOM      6  C   UNL     1      46.464   2.467   7.795  0.00  0.00    +0.000 A 
ATOM      7  C   UNL     1      45.552   1.836   8.645  0.00  0.00    +0.000 A 
ATOM      8  C   UNL     1      44.622   2.599   9.368  0.00  0.00    +0.000 A 
BRANCH   6   9
ATOM      9  C   UNL     1      47.445   1.723   6.963  0.00  0.00    +0.000 C 
ATOM     10  N   UNL     1      48.481   2.437   6.421  0.00  0.00    +0.000 N 
ATOM     11  O   UNL     1      47.328   0.529   6.738  0.00  0.00    +0.000 OA
ATOM     12  H   UNL     1      48.493   3.445   6.387  0.00  0.00    +0.000 HD
ATOM     13  H   UNL     1      49.072   1.934   5.772  0.00  0.00    +0.000 HD
ENDBRANCH   6   9
ENDBRANCH   1   3
BRANCH   1  14
ATOM     14  C   UNL     1      43.184   4.383  11.287  0.00  0.00    +0.000 C 
BRANCH  14  15
ATOM     15  C   UNL     1      43.389   5.581  12.222  0.00  0.00    +0.000 C 
BRANCH  15  20
ATOM     16  C   UNL     1      46.751   4.982  13.937  0.00  0.00    +0.000 A 
ATOM     17  C   UNL     1      47.585   5.838  13.208  0.00  0.00    +0.000 A 
ATOM     18  C   UNL     1      47.055   6.627  12.189  0.00  0.00    +0.000 A 
ATOM     19  C   UNL     1      45.693   6.565  11.888  0.00  0.00    +0.000 A 
ATOM     20  C   UNL     1      44.844   5.714  12.609  0.00  0.00    +0.000 A 
ATOM     21  C   UNL     1      45.384   4.929  13.640  0.00  0.00    +0.000 A 
BRANCH  16  23
ATOM     22  C   UNL     1      47.557   4.608  16.218  0.00  0.00    +0.000 C 
ATOM     23  C   UNL     1      47.315   4.136  14.988  0.00  0.00    +0.000 C 
BRANCH  22  25
ATOM     24  N   UNL     1      48.762   3.009  18.148  0.00  0.00    +0.000 NA
ATOM     25  C   UNL     1      48.215   3.734  17.273  0.00  0.00    +0.000 C 
ENDBRANCH  22  25
ENDBRANCH  16  23
ENDBRANCH  15  20
ENDBRANCH  14  15
ENDBRANCH   1  14
TORSDOF 7
ENDMDL
MODEL 3
REMARK VINA RESULT:    -7.754      1.854      2.255
REMARK INTER + INTRA:         -11.779
REMARK INTER:                 -10.894
REMARK INTRA:                  -0.885
REMARK UNBOUND:                -0.852
REMARK  Name = 
REMARK  7 active torsions:
REMARK  status: ('A' for Active; 'I' for Inactive)
REMARK    1  A    between atoms: C_2  and  C_3
REMARK    2  A    between atoms: C_4  and  C_5
REMARK    3  A    between atoms: C_9  and  C_10
REMARK    4  A    between atoms: C_10  and  C_11
REMARK    5  A    between atoms: C_11  and  N_12
REMARK    6  A    between atoms: N_12  and  C_13
REMARK    7  A    between atoms: C_16  and  C_17
REMARK                            x       y       z     vdW  Elec       q    Type
REMARK                         _______ _______ _______ _____ _____    ______ ____
ROOT
ATOM      1  N   UNL     1      43.677   4.762   9.990  0.00  0.00    +0.000 N 
ATOM      2  H   UNL     1      43.071   5.346   9.423  0.00  0.00    +0.000 HD
ENDROOT
BRANCH   1   3
ATOM      3  C   UNL     1      44.657   4.042   9.315  0.00  0.00    +0.000 A 
ATOM      4  C   UNL     1      45.565   4.633   8.426  0.00  0.00    +0.000 A 
ATOM      5  C   UNL     1      46.458   3.863   7.672  0.00  0.00    +0.000 A 
ATOM      6  C   UNL     1      46.462   2.472   7.787  0.00  0.00    +0.000 A 
ATOM      7  C   UNL     1      45.562   1.860   8.661  0.00  0.00    +0.000 A 
ATOM      8  C   UNL     1      44.668   2.642   9.411  0.00  0.00    +0.000 A 
BRANCH   6   9
ATOM      9  C   UNL     1      47.403   1.708   6.926  0.00  0.00    +0.000 C 
ATOM     10  N   UNL     1      48.482   2.384   6.418  0.00  0.00    +0.000 N 
ATOM     11  O   UNL     1      47.219   0.534   6.651  0.00  0.00    +0.000 OA
ATOM     12  H   UNL     1      48.552   3.390   6.427  0.00  0.00    +0.000 HD
ATOM     13  H   UNL     1      49.047   1.875   5.751  0.00  0.00    +0.000 HD
ENDBRANCH   6   9
ENDBRANCH   1   3
BRANCH   1  14
ATOM     14  C   UNL     1      43.180   4.332  11.291  0.00  0.00    +0.000 C 
BRANCH  14  15
ATOM     15  C   UNL     1      43.397   5.405  12.364  0.00  0.00    +0.000 C 
BRANCH  15  20
ATOM     16  C   UNL     1      46.876   6.972  12.564  0.00  0.00    +0.000 A 
ATOM     17  C   UNL     1      47.565   6.013  13.314  0.00  0.00    +0.000 A 
ATOM     18  C   UNL     1      46.915   4.850  13.725  0.00  0.00    +0.000 A 
ATOM     19  C   UNL     1      45.574   4.640  13.394  0.00  0.00    +0.000 A 
ATOM     20  C   UNL     1      44.871   5.591  12.643  0.00  0.00    +0.000 A 
ATOM     21  C   UNL     1      45.535   6.756  12.226  0.00  0.00    +0.000 A 
BRANCH  16  23
ATOM     22  C   UNL     1      48.843   8.210  11.796  0.00  0.00    +0.000 C 
ATOM     23  C   UNL     1      47.554   8.203  12.158  0.00  0.00    +0.000 C 
BRANCH  22  25
ATOM     24  N   UNL     1      50.135  10.590  11.164  0.00  0.00    +0.000 NA
ATOM     25  C   UNL     1      49.549   9.511  11.451  0.00  0.00    +0.000 C 
ENDBRANCH  22  25
ENDBRANCH  16  23
ENDBRANCH  15  20
ENDBRANCH  14  15
ENDBRANCH   1  14
TORSDOF 7
ENDMDL
MODEL 4
REMARK VINA RESULT:    -7.346      2.637      3.501
REMARK INTER + INTRA:         -11.203
REMARK INTER:                 -10.494
REMARK INTRA:                  -0.709
REMARK UNBOUND:                -0.852
REMARK  Name = 
REMARK  7 active torsions:
REMARK  status: ('A' for Active; 'I' for Inactive)
REMARK    1  A    between atoms: C_2  and  C_3
REMARK    2  A    between atoms: C_4  and  C_5
REMARK    3  A    between atoms: C_9  and  C_10
REMARK    4  A    between atoms: C_10  and  C_11
REMARK    5  A    between atoms: C_11  and  N_12
REMARK    6  A    between atoms: N_12  and  C_13
REMARK    7  A    between atoms: C_16  and  C_17
REMARK                            x       y       z     vdW  Elec       q    Type
REMARK                         _______ _______ _______ _____ _____    ______ ____
ROOT
ATOM      1  N   UNL     1      43.840   4.875   9.964  0.00  0.00    +0.000 N 
ATOM      2  H   UNL     1      42.893   4.858   9.601  0.00  0.00    +0.000 HD
ENDROOT
BRANCH   1   3
ATOM      3  C   UNL     1      44.783   4.119   9.275  0.00  0.00    +0.000 A 
ATOM      4  C   UNL     1      45.710   4.678   8.385  0.00  0.00    +0.000 A 
ATOM      5  C   UNL     1      46.564   3.876   7.619  0.00  0.00    +0.000 A 
ATOM      6  C   UNL     1      46.508   2.486   7.720  0.00  0.00    +0.000 A 
ATOM      7  C   UNL     1      45.587   1.906   8.596  0.00  0.00    +0.000 A 
ATOM      8  C   UNL     1      44.734   2.719   9.359  0.00  0.00    +0.000 A 
BRANCH   6   9
ATOM      9  C   UNL     1      47.409   1.689   6.847  0.00  0.00    +0.000 C 
ATOM     10  N   UNL     1      48.444   2.350   6.240  0.00  0.00    +0.000 N 
ATOM     11  O   UNL     1      47.228   0.499   6.646  0.00  0.00    +0.000 OA
ATOM     12  H   UNL     1      48.498   3.357   6.192  0.00  0.00    +0.000 HD
ATOM     13  H   UNL     1      48.977   1.814   5.567  0.00  0.00    +0.000 HD
ENDBRANCH   6   9
ENDBRANCH   1   3
BRANCH   1  14
ATOM     14  C   UNL     1      44.022   5.222  11.368  0.00  0.00    +0.000 C 
BRANCH  14  15
ATOM     15  C   UNL     1      45.501   5.197  11.772  0.00  0.00    +0.000 C 
BRANCH  15  20
ATOM     16  C   UNL     1      47.794   8.243  12.020  0.00  0.00    +0.000 A 
ATOM     17  C   UNL     1      46.889   9.234  12.417  0.00  0.00    +0.000 A 
ATOM     18  C   UNL     1      45.550   8.910  12.634  0.00  0.00    +0.000 A 
ATOM     19  C   UNL     1      45.107   7.598  12.453  0.00  0.00    +0.000 A 
ATOM     20  C   UNL     1      46.001   6.595  12.056  0.00  0.00    +0.000 A 
ATOM     21  C   UNL     1      47.349   6.927  11.848  0.00  0.00    +0.000 A 
BRANCH  16  23
ATOM     22  C   UNL     1      50.078   7.684  11.340  0.00  0.00    +0.000 C 
ATOM     23  C   UNL     1      49.191   8.592  11.768  0.00  0.00    +0.000 C 
BRANCH  22  25
ATOM     24  N   UNL     1      52.756   8.353  11.004  0.00  0.00    +0.000 NA
ATOM     25  C   UNL     1      51.542   8.050  11.157  0.00  0.00    +0.000 C 
ENDBRANCH  22  25
ENDBRANCH  16  23
ENDBRANCH  15  20
ENDBRANCH  14  15
ENDBRANCH   1  14
TORSDOF 7
ENDMDL
MODEL 5
REMARK VINA RESULT:    -6.986      2.552      3.265
REMARK INTER + INTRA:         -10.696
REMARK INTER:                 -10.054
REMARK INTRA:                  -0.642
REMARK UNBOUND:                -0.852
REMARK  Name = 
REMARK  7 active torsions:
REMARK  status: ('A' for Active; 'I' for Inactive)
REMARK    1  A    between atoms: C_2  and  C_3
REMARK    2  A    between atoms: C_4  and  C_5
REMARK    3  A    between atoms: C_9  and  C_10
REMARK    4  A    between atoms: C_10  and  C_11
REMARK    5  A    between atoms: C_11  and  N_12
REMARK    6  A    between atoms: N_12  and  C_13
REMARK    7  A    between atoms: C_16  and  C_17
REMARK                            x       y       z     vdW  Elec       q    Type
REMARK                         _______ _______ _______ _____ _____    ______ ____
ROOT
ATOM      1  N   UNL     1      43.664   4.726   9.946  0.00  0.00    +0.000 N 
ATOM      2  H   UNL     1      42.673   4.705   9.729  0.00  0.00    +0.000 HD
ENDROOT
BRANCH   1   3
ATOM      3  C   UNL     1      44.483   3.889   9.195  0.00  0.00    +0.000 A 
ATOM      4  C   UNL     1      44.595   2.513   9.432  0.00  0.00    +0.000 A 
ATOM      5  C   UNL     1      45.518   1.723   8.738  0.00  0.00    +0.000 A 
ATOM      6  C   UNL     1      46.363   2.296   7.786  0.00  0.00    +0.000 A 
ATOM      7  C   UNL     1      46.275   3.667   7.538  0.00  0.00    +0.000 A 
ATOM      8  C   UNL     1      45.346   4.450   8.241  0.00  0.00    +0.000 A 
BRANCH   6   9
ATOM      9  C   UNL     1      47.353   1.412   7.116  0.00  0.00    +0.000 C 
ATOM     10  N   UNL     1      48.479   2.003   6.605  0.00  0.00    +0.000 N 
ATOM     11  O   UNL     1      47.170   0.212   6.994  0.00  0.00    +0.000 OA
ATOM     12  H   UNL     1      48.566   3.000   6.479  0.00  0.00    +0.000 HD
ATOM     13  H   UNL     1      49.084   1.402   6.061  0.00  0.00    +0.000 HD
ENDBRANCH   6   9
ENDBRANCH   1   3
BRANCH   1  14
ATOM     14  C   UNL     1      44.058   5.185  11.272  0.00  0.00    +0.000 C 
BRANCH  14  15
ATOM     15  C   UNL     1      45.271   6.120  11.212  0.00  0.00    +0.000 C 
BRANCH  15  20
ATOM     16  C   UNL     1      48.033   6.597  13.809  0.00  0.00    +0.000 A 
ATOM     17  C   UNL     1      47.792   5.517  14.665  0.00  0.00    +0.000 A 
ATOM     18  C   UNL     1      46.761   4.621  14.385  0.00  0.00    +0.000 A 
ATOM     19  C   UNL     1      45.964   4.800  13.253  0.00  0.00    +0.000 A 
ATOM     20  C   UNL     1      46.193   5.877  12.385  0.00  0.00    +0.000 A 
ATOM     21  C   UNL     1      47.238   6.769  12.670  0.00  0.00    +0.000 A 
BRANCH  16  23
ATOM     22  C   UNL     1      50.102   7.237  14.952  0.00  0.00    +0.000 C 
ATOM     23  C   UNL     1      49.098   7.549  14.120  0.00  0.00    +0.000 C 
BRANCH  22  25
ATOM     24  N   UNL     1      52.031   9.122  15.628  0.00  0.00    +0.000 NA
ATOM     25  C   UNL     1      51.156   8.267  15.322  0.00  0.00    +0.000 C 
ENDBRANCH  22  25
ENDBRANCH  16  23
ENDBRANCH  15  20
ENDBRANCH  14  15
ENDBRANCH   1  14
TORSDOF 7
ENDMDL
MODEL 6
REMARK VINA RESULT:    -6.505      3.800      7.539
REMARK INTER + INTRA:         -10.019
REMARK INTER:                  -9.291
REMARK INTRA:                  -0.728
REMARK UNBOUND:                -0.852
REMARK  Name = 
REMARK  7 active torsions:
REMARK  status: ('A' for Active; 'I' for Inactive)
REMARK    1  A    between atoms: C_2  and  C_3
REMARK    2  A    between atoms: C_4  and  C_5
REMARK    3  A    between atoms: C_9  and  C_10
REMARK    4  A    between atoms: C_10  and  C_11
REMARK    5  A    between atoms: C_11  and  N_12
REMARK    6  A    between atoms: N_12  and  C_13
REMARK    7  A    between atoms: C_16  and  C_17
REMARK                            x       y       z     vdW  Elec       q    Type
REMARK                         _______ _______ _______ _____ _____    ______ ____
ROOT
ATOM      1  N   UNL     1      48.104   7.190  13.075  0.00  0.00    +0.000 N 
ATOM      2  H   UNL     1      48.896   7.823  13.107  0.00  0.00    +0.000 HD
ENDROOT
BRANCH   1   3
ATOM      3  C   UNL     1      47.996   6.275  14.117  0.00  0.00    +0.000 A 
ATOM      4  C   UNL     1      47.161   5.152  14.066  0.00  0.00    +0.000 A 
ATOM      5  C   UNL     1      46.985   4.319  15.177  0.00  0.00    +0.000 A 
ATOM      6  C   UNL     1      47.641   4.595  16.377  0.00  0.00    +0.000 A 
ATOM      7  C   UNL     1      48.474   5.713  16.454  0.00  0.00    +0.000 A 
ATOM      8  C   UNL     1      48.641   6.543  15.334  0.00  0.00    +0.000 A 
BRANCH   6   9
ATOM      9  C   UNL     1      47.377   3.699  17.534  0.00  0.00    +0.000 C 
ATOM     10  N   UNL     1      48.113   3.906  18.671  0.00  0.00    +0.000 N 
ATOM     11  O   UNL     1      46.561   2.794  17.477  0.00  0.00    +0.000 OA
ATOM     12  H   UNL     1      48.944   4.479  18.690  0.00  0.00    +0.000 HD
ATOM     13  H   UNL     1      47.995   3.219  19.405  0.00  0.00    +0.000 HD
ENDBRANCH   6   9
ENDBRANCH   1   3
BRANCH   1  14
ATOM     14  C   UNL     1      47.488   6.940  11.777  0.00  0.00    +0.000 C 
BRANCH  14  15
ATOM     15  C   UNL     1      45.999   7.305  11.776  0.00  0.00    +0.000 C 
BRANCH  15  20
ATOM     16  C   UNL     1      44.781   4.394   9.621  0.00  0.00    +0.000 A 
ATOM     17  C   UNL     1      43.727   3.902  10.398  0.00  0.00    +0.000 A 
ATOM     18  C   UNL     1      43.391   4.529  11.597  0.00  0.00    +0.000 A 
ATOM     19  C   UNL     1      44.108   5.647  12.029  0.00  0.00    +0.000 A 
ATOM     20  C   UNL     1      45.167   6.152  11.262  0.00  0.00    +0.000 A 
ATOM     21  C   UNL     1      45.493   5.520  10.052  0.00  0.00    +0.000 A 
BRANCH  16  23
ATOM     22  C   UNL     1      46.305   3.967   7.753  0.00  0.00    +0.000 C 
ATOM     23  C   UNL     1      45.147   3.717   8.378  0.00  0.00    +0.000 C 
BRANCH  22  25
ATOM     24  N   UNL     1      46.902   2.764   5.319  0.00  0.00    +0.000 NA
ATOM     25  C   UNL     1      46.632   3.310   6.423  0.00  0.00    +0.000 C 
ENDBRANCH  22  25
ENDBRANCH  16  23
ENDBRANCH  15  20
ENDBRANCH  14  15
ENDBRANCH   1  14
TORSDOF 7
ENDMDL
MODEL 7
REMARK VINA RESULT:    -6.347      3.435      7.039
REMARK INTER + INTRA:          -9.796
REMARK INTER:                  -8.989
REMARK INTRA:                  -0.806
REMARK UNBOUND:                -0.852
REMARK  Name = 
REMARK  7 active torsions:
REMARK  status: ('A' for Active; 'I' for Inactive)
REMARK    1  A    between atoms: C_2  and  C_3
REMARK    2  A    between atoms: C_4  and  C_5
REMARK    3  A    between atoms: C_9  and  C_10
REMARK    4  A    between atoms: C_10  and  C_11
REMARK    5  A    between atoms: C_11  and  N_12
REMARK    6  A    between atoms: N_12  and  C_13
REMARK    7  A    between atoms: C_16  and  C_17
REMARK                            x       y       z     vdW  Elec       q    Type
REMARK                         _______ _______ _______ _____ _____    ______ ____
ROOT
ATOM      1  N   UNL     1      45.967   7.798  13.322  0.00  0.00    +0.000 N 
ATOM      2  H   UNL     1      45.529   8.603  13.758  0.00  0.00    +0.000 HD
ENDROOT
BRANCH   1   3
ATOM      3  C   UNL     1      47.262   7.974  12.849  0.00  0.00    +0.000 A 
ATOM      4  C   UNL     1      47.699   9.154  12.232  0.00  0.00    +0.000 A 
ATOM      5  C   UNL     1      48.972   9.253  11.659  0.00  0.00    +0.000 A 
ATOM      6  C   UNL     1      49.845   8.165  11.685  0.00  0.00    +0.000 A 
ATOM      7  C   UNL     1      49.430   6.976  12.288  0.00  0.00    +0.000 A 
ATOM      8  C   UNL     1      48.149   6.887  12.858  0.00  0.00    +0.000 A 
BRANCH   6   9
ATOM      9  C   UNL     1      51.165   8.319  11.020  0.00  0.00    +0.000 C 
ATOM     10  N   UNL     1      51.903   7.182  10.815  0.00  0.00    +0.000 N 
ATOM     11  O   UNL     1      51.600   9.410  10.690  0.00  0.00    +0.000 OA
ATOM     12  H   UNL     1      51.695   6.305  11.268  0.00  0.00    +0.000 HD
ATOM     13  H   UNL     1      52.841   7.323  10.462  0.00  0.00    +0.000 HD
ENDBRANCH   6   9
ENDBRANCH   1   3
BRANCH   1  14
ATOM     14  C   UNL     1      45.095   6.762  12.781  0.00  0.00    +0.000 C 
BRANCH  14  15
ATOM     15  C   UNL     1      44.926   6.897  11.264  0.00  0.00    +0.000 C 
BRANCH  15  20
ATOM     16  C   UNL     1      45.390   3.913   8.922  0.00  0.00    +0.000 A 
ATOM     17  C   UNL     1      44.571   2.957   9.533  0.00  0.00    +0.000 A 
ATOM     18  C   UNL     1      43.849   3.287  10.679  0.00  0.00    +0.000 A 
ATOM     19  C   UNL     1      43.941   4.570  11.223  0.00  0.00    +0.000 A 
ATOM     20  C   UNL     1      44.757   5.539  10.622  0.00  0.00    +0.000 A 
ATOM     21  C   UNL     1      45.474   5.201   9.464  0.00  0.00    +0.000 A 
BRANCH  16  23
ATOM     22  C   UNL     1      46.719   2.343   7.595  0.00  0.00    +0.000 C 
ATOM     23  C   UNL     1      46.167   3.555   7.736  0.00  0.00    +0.000 C 
BRANCH  22  25
ATOM     24  N   UNL     1      48.307   1.746   5.392  0.00  0.00    +0.000 NA
ATOM     25  C   UNL     1      47.586   2.016   6.391  0.00  0.00    +0.000 C 
ENDBRANCH  22  25
ENDBRANCH  16  23
ENDBRANCH  15  20
ENDBRANCH  14  15
ENDBRANCH   1  14
TORSDOF 7
ENDMDL
MODEL 8
REMARK VINA RESULT:    -5.980      5.036      7.542
REMARK INTER + INTRA:          -9.279
REMARK INTER:                  -8.536
REMARK INTRA:                  -0.743
REMARK UNBOUND:                -0.852
REMARK  Name = 
REMARK  7 active torsions:
REMARK  status: ('A' for Active; 'I' for Inactive)
REMARK    1  A    between atoms: C_2  and  C_3
REMARK    2  A    between atoms: C_4  and  C_5
REMARK    3  A    between atoms: C_9  and  C_10
REMARK    4  A    between atoms: C_10  and  C_11
REMARK    5  A    between atoms: C_11  and  N_12
REMARK    6  A    between atoms: N_12  and  C_13
REMARK    7  A    between atoms: C_16  and  C_17
REMARK                            x       y       z     vdW  Elec       q    Type
REMARK                         _______ _______ _______ _____ _____    ______ ____
ROOT
ATOM      1  N   UNL     1      47.274   7.185  14.019  0.00  0.00    +0.000 N 
ATOM      2  H   UNL     1      46.714   7.809  14.591  0.00  0.00    +0.000 HD
ENDROOT
BRANCH   1   3
ATOM      3  C   UNL     1      46.588   6.403  13.097  0.00  0.00    +0.000 A 
ATOM      4  C   UNL     1      46.250   6.852  11.813  0.00  0.00    +0.000 A 
ATOM      5  C   UNL     1      45.455   6.084  10.955  0.00  0.00    +0.000 A 
ATOM      6  C   UNL     1      44.971   4.841  11.364  0.00  0.00    +0.000 A 
ATOM      7  C   UNL     1      45.288   4.375  12.642  0.00  0.00    +0.000 A 
ATOM      8  C   UNL     1      46.085   5.155  13.495  0.00  0.00    +0.000 A 
BRANCH   6   9
ATOM      9  C   UNL     1      44.094   4.094  10.424  0.00  0.00    +0.000 C 
ATOM     10  N   UNL     1      44.148   4.444   9.100  0.00  0.00    +0.000 N 
ATOM     11  O   UNL     1      43.331   3.221  10.806  0.00  0.00    +0.000 OA
ATOM     12  H   UNL     1      44.581   5.296   8.775  0.00  0.00    +0.000 HD
ATOM     13  H   UNL     1      43.467   4.000   8.498  0.00  0.00    +0.000 HD
ENDBRANCH   6   9
ENDBRANCH   1   3
BRANCH   1  14
ATOM     14  C   UNL     1      48.581   6.789  14.529  0.00  0.00    +0.000 C 
BRANCH  14  15
ATOM     15  C   UNL     1      48.599   6.731  16.061  0.00  0.00    +0.000 C 
BRANCH  15  20
ATOM     16  C   UNL     1      49.758   3.354  17.421  0.00  0.00    +0.000 A 
ATOM     17  C   UNL     1      48.535   2.698  17.600  0.00  0.00    +0.000 A 
ATOM     18  C   UNL     1      47.344   3.334  17.252  0.00  0.00    +0.000 A 
ATOM     19  C   UNL     1      47.367   4.628  16.728  0.00  0.00    +0.000 A 
ATOM     20  C   UNL     1      48.584   5.299  16.542  0.00  0.00    +0.000 A 
ATOM     21  C   UNL     1      49.779   4.648  16.887  0.00  0.00    +0.000 A 
BRANCH  16  23
ATOM     22  C   UNL     1      51.298   1.451  17.406  0.00  0.00    +0.000 C 
ATOM     23  C   UNL     1      51.003   2.693  17.812  0.00  0.00    +0.000 C 
BRANCH  22  25
ATOM     24  N   UNL     1      53.608   0.175  18.283  0.00  0.00    +0.000 NA
ATOM     25  C   UNL     1      52.561   0.754  17.886  0.00  0.00    +0.000 C 
ENDBRANCH  22  25
ENDBRANCH  16  23
ENDBRANCH  15  20
ENDBRANCH  14  15
ENDBRANCH   1  14
TORSDOF 7
ENDMDL
MODEL 9
REMARK VINA RESULT:    -5.838      3.731      7.438
REMARK INTER + INTRA:          -9.079
REMARK INTER:                  -8.590
REMARK INTRA:                  -0.489
REMARK UNBOUND:                -0.852
REMARK  Name = 
REMARK  7 active torsions:
REMARK  status: ('A' for Active; 'I' for Inactive)
REMARK    1  A    between atoms: C_2  and  C_3
REMARK    2  A    between atoms: C_4  and  C_5
REMARK    3  A    between atoms: C_9  and  C_10
REMARK    4  A    between atoms: C_10  and  C_11
REMARK    5  A    between atoms: C_11  and  N_12
REMARK    6  A    between atoms: N_12  and  C_13
REMARK    7  A    between atoms: C_16  and  C_17
REMARK                            x       y       z     vdW  Elec       q    Type
REMARK                         _______ _______ _______ _____ _____    ______ ____
ROOT
ATOM      1  N   UNL     1      46.274   7.141  11.724  0.00  0.00    +0.000 N 
ATOM      2  H   UNL     1      46.346   6.959  10.728  0.00  0.00    +0.000 HD
ENDROOT
BRANCH   1   3
ATOM      3  C   UNL     1      47.469   7.226  12.429  0.00  0.00    +0.000 A 
ATOM      4  C   UNL     1      47.645   6.677  13.706  0.00  0.00    +0.000 A 
ATOM      5  C   UNL     1      48.820   6.885  14.437  0.00  0.00    +0.000 A 
ATOM      6  C   UNL     1      49.855   7.657  13.906  0.00  0.00    +0.000 A 
ATOM      7  C   UNL     1      49.700   8.221  12.638  0.00  0.00    +0.000 A 
ATOM      8  C   UNL     1      48.515   8.007  11.915  0.00  0.00    +0.000 A 
BRANCH   6   9
ATOM      9  C   UNL     1      51.058   7.878  14.750  0.00  0.00    +0.000 C 
ATOM     10  N   UNL     1      52.279   7.838  14.129  0.00  0.00    +0.000 N 
ATOM     11  O   UNL     1      50.979   8.062  15.954  0.00  0.00    +0.000 OA
ATOM     12  H   UNL     1      52.408   7.468  13.199  0.00  0.00    +0.000 HD
ATOM     13  H   UNL     1      53.086   7.882  14.737  0.00  0.00    +0.000 HD
ENDBRANCH   6   9
ENDBRANCH   1   3
BRANCH   1  14
ATOM     14  C   UNL     1      45.022   6.795  12.387  0.00  0.00    +0.000 C 
BRANCH  14  15
ATOM     15  C   UNL     1      43.905   6.509  11.378  0.00  0.00    +0.000 C 
BRANCH  15  20
ATOM     16  C   UNL     1      45.008   3.540   9.240  0.00  0.00    +0.000 A 
ATOM     17  C   UNL     1      44.394   2.477   9.912  0.00  0.00    +0.000 A 
ATOM     18  C   UNL     1      43.601   2.724  11.032  0.00  0.00    +0.000 A 
ATOM     19  C   UNL     1      43.420   4.031  11.490  0.00  0.00    +0.000 A 
ATOM     20  C   UNL     1      44.028   5.107  10.828  0.00  0.00    +0.000 A 
ATOM     21  C   UNL     1      44.817   4.850   9.695  0.00  0.00    +0.000 A 
BRANCH  16  23
ATOM     22  C   UNL     1      46.440   2.082   7.893  0.00  0.00    +0.000 C 
ATOM     23  C   UNL     1      45.860   3.275   8.082  0.00  0.00    +0.000 C 
BRANCH  22  25
ATOM     24  N   UNL     1      48.166   1.657   5.754  0.00  0.00    +0.000 NA
ATOM     25  C   UNL     1      47.383   1.850   6.724  0.00  0.00    +0.000 C 
ENDBRANCH  22  25
ENDBRANCH  16  23
ENDBRANCH  15  20
ENDBRANCH  14  15
ENDBRANCH   1  14
TORSDOF 7
ENDMDL
