MODEL 1
REMARK VINA RESULT:    -8.916      0.000      0.000
REMARK INTER + INTRA:         -12.955
REMARK INTER:                 -12.044
REMARK INTRA:                  -0.912
REMARK UNBOUND:                -0.912
REMARK  Name = 
REMARK  6 active torsions:
REMARK  status: ('A' for Active; 'I' for Inactive)
REMARK    1  A    between atoms: C_2  and  C_4
REMARK    2  A    between atoms: C_7  and  O_8
REMARK    3  A    between atoms: O_8  and  C_9
REMARK    4  A    between atoms: C_9  and  C_10
REMARK    5  A    between atoms: C_10  and  C_13
REMARK    6  A    between atoms: C_17  and  N_18
REMARK                            x       y       z     vdW  Elec       q    Type
REMARK                         _______ _______ _______ _____ _____    ______ ____
ROOT
ATOM      1  C   UNL     1      43.453   5.325  11.979  0.00  0.00    +0.000 C 
ATOM      2  F   UNL     1      42.853   6.409  11.403  0.00  0.00    +0.000 F 
ATOM      3  F   UNL     1      42.689   5.030  13.075  0.00  0.00    +0.000 F 
ENDROOT
BRANCH   1   4
ATOM      4  C   UNL     1      44.895   5.615  12.360  0.00  0.00    +0.000 A 
ATOM      5  C   UNL     1      45.714   6.398  11.540  0.00  0.00    +0.000 A 
ATOM      6  C   UNL     1      47.040   6.634  11.900  0.00  0.00    +0.000 A 
ATOM      7  C   UNL     1      47.549   6.099  13.087  0.00  0.00    +0.000 A 
ATOM      8  C   UNL     1      46.751   5.330  13.945  0.00  0.00    +0.000 A 
ATOM      9  C   UNL     1      45.428   5.084  13.550  0.00  0.00    +0.000 A 
BRANCH   8  10
ATOM     10  N   UNL     1      47.278   4.906  15.169  0.00  0.00    +0.000 N 
ATOM     11  C   UNL     1      47.520   3.460  15.344  0.00  0.00    +0.000 C 
ATOM     12  C   UNL     1      47.808   3.168  16.823  0.00  0.00    +0.000 C 
ATOM     13  O   UNL     1      48.940   3.923  17.289  0.00  0.00    +0.000 OA
ATOM     14  C   UNL     1      48.688   5.332  17.144  0.00  0.00    +0.000 C 
ATOM     15  C   UNL     1      48.404   5.720  15.681  0.00  0.00    +0.000 C 
ENDBRANCH   8  10
ENDBRANCH   1   4
BRANCH   1  16
ATOM     16  C   UNL     1      43.388   4.145  11.002  0.00  0.00    +0.000 C 
BRANCH  16  17
ATOM     17  O   UNL     1      43.557   4.588   9.641  0.00  0.00    +0.000 OA
BRANCH  17  21
ATOM     18  C   UNL     1      46.548   2.506   7.722  0.00  0.00    +0.000 A 
ATOM     19  C   UNL     1      45.673   1.829   8.575  0.00  0.00    +0.000 A 
ATOM     20  C   UNL     1      44.667   2.543   9.228  0.00  0.00    +0.000 A 
ATOM     21  C   UNL     1      44.575   3.910   9.001  0.00  0.00    +0.000 A 
ATOM     22  N   UNL     1      45.412   4.590   8.190  0.00  0.00    +0.000 NA
ATOM     23  C   UNL     1      46.385   3.878   7.577  0.00  0.00    +0.000 A 
BRANCH  18  25
ATOM     24  N   UNL     1      48.503   2.654   6.288  0.00  0.00    +0.000 N 
ATOM     25  C   UNL     1      47.639   1.851   6.974  0.00  0.00    +0.000 C 
ATOM     26  O   UNL     1      47.792   0.638   7.007  0.00  0.00    +0.000 OA
ATOM     27  H   UNL     1      49.314   2.194   5.893  0.00  0.00    +0.000 HD
ATOM     28  H   UNL     1      48.568   3.650   6.451  0.00  0.00    +0.000 HD
ENDBRANCH  18  25
ENDBRANCH  17  21
ENDBRANCH  16  17
ENDBRANCH   1  16
TORSDOF 6
ENDMDL
MODEL 2
REMARK VINA RESULT:    -8.803      2.529      3.813
REMARK INTER + INTRA:         -12.802
REMARK INTER:                 -11.869
REMARK INTRA:                  -0.934
REMARK UNBOUND:                -0.912
REMARK  Name = 
REMARK  6 active torsions:
REMARK  status: ('A' for Active; 'I' for Inactive)
REMARK    1  A    between atoms: C_2  and  C_4
REMARK    2  A    between atoms: C_7  and  O_8
REMARK    3  A    between atoms: O_8  and  C_9
REMARK    4  A    between atoms: C_9  and  C_10
REMARK    5  A    between atoms: C_10  and  C_13
REMARK    6  A    between atoms: C_17  and  N_18
REMARK                            x       y       z     vdW  Elec       q    Type
REMARK                         _______ _______ _______ _____ _____    ______ ____
ROOT
ATOM      1  C   UNL     1      43.293   4.708  12.470  0.00  0.00    +0.000 C 
ATOM      2  F   UNL     1      42.274   5.610  12.342  0.00  0.00    +0.000 F 
ATOM      3  F   UNL     1      42.965   3.944  13.556  0.00  0.00    +0.000 F 
ENDROOT
BRANCH   1   4
ATOM      4  C   UNL     1      44.636   5.395  12.650  0.00  0.00    +0.000 A 
ATOM      5  C   UNL     1      45.746   4.694  13.133  0.00  0.00    +0.000 A 
ATOM      6  C   UNL     1      46.963   5.350  13.309  0.00  0.00    +0.000 A 
ATOM      7  C   UNL     1      47.080   6.706  12.992  0.00  0.00    +0.000 A 
ATOM      8  C   UNL     1      45.996   7.435  12.483  0.00  0.00    +0.000 A 
ATOM      9  C   UNL     1      44.775   6.761  12.339  0.00  0.00    +0.000 A 
BRANCH   8  10
ATOM     10  N   UNL     1      46.192   8.760  12.084  0.00  0.00    +0.000 N 
ATOM     11  C   UNL     1      45.070   9.703  12.266  0.00  0.00    +0.000 C 
ATOM     12  C   UNL     1      45.370  11.004  11.509  0.00  0.00    +0.000 C 
ATOM     13  O   UNL     1      46.598  11.597  11.965  0.00  0.00    +0.000 OA
ATOM     14  C   UNL     1      47.693  10.687  11.757  0.00  0.00    +0.000 C 
ATOM     15  C   UNL     1      47.484   9.354  12.499  0.00  0.00    +0.000 C 
ENDBRANCH   8  10
ENDBRANCH   1   4
BRANCH   1  16
ATOM     16  C   UNL     1      43.318   3.810  11.227  0.00  0.00    +0.000 C 
BRANCH  16  17
ATOM     17  O   UNL     1      43.706   4.554  10.056  0.00  0.00    +0.000 OA
BRANCH  17  21
ATOM     18  C   UNL     1      46.396   2.444   7.760  0.00  0.00    +0.000 A 
ATOM     19  C   UNL     1      45.610   1.769   8.697  0.00  0.00    +0.000 A 
ATOM     20  C   UNL     1      44.706   2.494   9.476  0.00  0.00    +0.000 A 
ATOM     21  C   UNL     1      44.624   3.866   9.288  0.00  0.00    +0.000 A 
ATOM     22  N   UNL     1      45.378   4.544   8.397  0.00  0.00    +0.000 NA
ATOM     23  C   UNL     1      46.254   3.822   7.661  0.00  0.00    +0.000 A 
BRANCH  18  25
ATOM     24  N   UNL     1      48.414   2.532   6.409  0.00  0.00    +0.000 N 
ATOM     25  C   UNL     1      47.375   1.779   6.876  0.00  0.00    +0.000 C 
ATOM     26  O   UNL     1      47.286   0.589   6.612  0.00  0.00    +0.000 OA
ATOM     27  H   UNL     1      49.138   2.025   5.915  0.00  0.00    +0.000 HD
ATOM     28  H   UNL     1      48.664   3.425   6.811  0.00  0.00    +0.000 HD
ENDBRANCH  18  25
ENDBRANCH  17  21
ENDBRANCH  16  17
ENDBRANCH   1  16
TORSDOF 6
ENDMDL
MODEL 3
REMARK VINA RESULT:    -8.183      3.005      4.839
REMARK INTER + INTRA:         -11.965
REMARK INTER:                 -11.095
REMARK INTRA:                  -0.870
REMARK UNBOUND:                -0.912
REMARK  Name = 
REMARK  6 active torsions:
REMARK  status: ('A' for Active; 'I' for Inactive)
REMARK    1  A    between atoms: C_2  and  C_4
REMARK    2  A    between atoms: C_7  and  O_8
REMARK    3  A    between atoms: O_8  and  C_9
REMARK    4  A    between atoms: C_9  and  C_10
REMARK    5  A    between atoms: C_10  and  C_13
REMARK    6  A    between atoms: C_17  and  N_18
REMARK                            x       y       z     vdW  Elec       q    Type
REMARK                         _______ _______ _______ _____ _____    ______ ____
ROOT
ATOM      1  C   UNL     1      44.471   4.241  12.116  0.00  0.00    +0.000 C 
ATOM      2  F   UNL     1      43.667   4.003  13.195  0.00  0.00    +0.000 F 
ATOM      3  F   UNL     1      45.385   3.223  12.116  0.00  0.00    +0.000 F 
ENDROOT
BRANCH   1   4
ATOM      4  C   UNL     1      45.142   5.601  12.201  0.00  0.00    +0.000 A 
ATOM      5  C   UNL     1      46.412   5.744  12.772  0.00  0.00    +0.000 A 
ATOM      6  C   UNL     1      47.001   7.004  12.857  0.00  0.00    +0.000 A 
ATOM      7  C   UNL     1      46.329   8.125  12.362  0.00  0.00    +0.000 A 
ATOM      8  C   UNL     1      45.067   8.017  11.762  0.00  0.00    +0.000 A 
ATOM      9  C   UNL     1      44.483   6.743  11.711  0.00  0.00    +0.000 A 
BRANCH   8  10
ATOM     10  N   UNL     1      44.484   9.152  11.190  0.00  0.00    +0.000 N 
ATOM     11  C   UNL     1      43.026   9.128  10.958  0.00  0.00    +0.000 C 
ATOM     12  C   UNL     1      42.632  10.316  10.068  0.00  0.00    +0.000 C 
ATOM     13  O   UNL     1      43.022  11.563  10.668  0.00  0.00    +0.000 OA
ATOM     14  C   UNL     1      44.447  11.594  10.864  0.00  0.00    +0.000 C 
ATOM     15  C   UNL     1      44.930  10.442  11.765  0.00  0.00    +0.000 C 
ENDBRANCH   8  10
ENDBRANCH   1   4
BRANCH   1  16
ATOM     16  C   UNL     1      43.627   4.144  10.839  0.00  0.00    +0.000 C 
BRANCH  16  17
ATOM     17  O   UNL     1      43.665   2.812  10.290  0.00  0.00    +0.000 OA
BRANCH  17  21
ATOM     18  C   UNL     1      46.502   2.530   7.319  0.00  0.00    +0.000 A 
ATOM     19  C   UNL     1      45.824   3.735   7.513  0.00  0.00    +0.000 A 
ATOM     20  C   UNL     1      44.858   3.820   8.518  0.00  0.00    +0.000 A 
ATOM     21  C   UNL     1      44.608   2.694   9.289  0.00  0.00    +0.000 A 
ATOM     22  N   UNL     1      45.242   1.515   9.117  0.00  0.00    +0.000 NA
ATOM     23  C   UNL     1      46.166   1.454   8.131  0.00  0.00    +0.000 A 
BRANCH  18  25
ATOM     24  N   UNL     1      47.499   3.120   5.183  0.00  0.00    +0.000 N 
ATOM     25  C   UNL     1      47.548   2.330   6.296  0.00  0.00    +0.000 C 
ATOM     26  O   UNL     1      48.452   1.523   6.460  0.00  0.00    +0.000 OA
ATOM     27  H   UNL     1      48.296   3.056   4.562  0.00  0.00    +0.000 HD
ATOM     28  H   UNL     1      46.940   3.961   5.136  0.00  0.00    +0.000 HD
ENDBRANCH  18  25
ENDBRANCH  17  21
ENDBRANCH  16  17
ENDBRANCH   1  16
TORSDOF 6
ENDMDL
MODEL 4
REMARK VINA RESULT:    -7.634      2.387      2.865
REMARK INTER + INTRA:         -11.223
REMARK INTER:                 -10.379
REMARK INTRA:                  -0.844
REMARK UNBOUND:                -0.912
REMARK  Name = 
REMARK  6 active torsions:
REMARK  status: ('A' for Active; 'I' for Inactive)
REMARK    1  A    between atoms: C_2  and  C_4
REMARK    2  A    between atoms: C_7  and  O_8
REMARK    3  A    between atoms: O_8  and  C_9
REMARK    4  A    between atoms: C_9  and  C_10
REMARK    5  A    between atoms: C_10  and  C_13
REMARK    6  A    between atoms: C_17  and  N_18
REMARK                            x       y       z     vdW  Elec       q    Type
REMARK                         _______ _______ _______ _____ _____    ______ ____
ROOT
ATOM      1  C   UNL     1      44.145   5.103  12.249  0.00  0.00    +0.000 C 
ATOM      2  F   UNL     1      43.147   5.083  13.182  0.00  0.00    +0.000 F 
ATOM      3  F   UNL     1      44.965   4.058  12.577  0.00  0.00    +0.000 F 
ENDROOT
BRANCH   1   4
ATOM      4  C   UNL     1      44.891   6.426  12.249  0.00  0.00    +0.000 A 
ATOM      5  C   UNL     1      44.361   7.552  11.610  0.00  0.00    +0.000 A 
ATOM      6  C   UNL     1      45.073   8.751  11.606  0.00  0.00    +0.000 A 
ATOM      7  C   UNL     1      46.311   8.833  12.250  0.00  0.00    +0.000 A 
ATOM      8  C   UNL     1      46.861   7.732  12.921  0.00  0.00    +0.000 A 
ATOM      9  C   UNL     1      46.140   6.529  12.890  0.00  0.00    +0.000 A 
BRANCH   8  10
ATOM     10  N   UNL     1      48.051   7.894  13.637  0.00  0.00    +0.000 N 
ATOM     11  C   UNL     1      49.285   8.139  12.865  0.00  0.00    +0.000 C 
ATOM     12  C   UNL     1      50.502   7.994  13.789  0.00  0.00    +0.000 C 
ATOM     13  O   UNL     1      50.420   8.903  14.900  0.00  0.00    +0.000 OA
ATOM     14  C   UNL     1      49.231   8.641  15.668  0.00  0.00    +0.000 C 
ATOM     15  C   UNL     1      47.954   8.782  14.819  0.00  0.00    +0.000 C 
ENDBRANCH   8  10
ENDBRANCH   1   4
BRANCH   1  16
ATOM     16  C   UNL     1      43.536   4.835  10.867  0.00  0.00    +0.000 C 
BRANCH  16  17
ATOM     17  O   UNL     1      43.593   3.434  10.536  0.00  0.00    +0.000 OA
BRANCH  17  21
ATOM     18  C   UNL     1      46.358   2.732   7.567  0.00  0.00    +0.000 A 
ATOM     19  C   UNL     1      45.891   4.031   7.781  0.00  0.00    +0.000 A 
ATOM     20  C   UNL     1      44.947   4.259   8.786  0.00  0.00    +0.000 A 
ATOM     21  C   UNL     1      44.508   3.177   9.536  0.00  0.00    +0.000 A 
ATOM     22  N   UNL     1      44.936   1.912   9.343  0.00  0.00    +0.000 NA
ATOM     23  C   UNL     1      45.841   1.714   8.358  0.00  0.00    +0.000 A 
BRANCH  18  25
ATOM     24  N   UNL     1      47.389   3.129   5.402  0.00  0.00    +0.000 N 
ATOM     25  C   UNL     1      47.361   2.379   6.542  0.00  0.00    +0.000 C 
ATOM     26  O   UNL     1      48.168   1.479   6.728  0.00  0.00    +0.000 OA
ATOM     27  H   UNL     1      48.165   2.953   4.777  0.00  0.00    +0.000 HD
ATOM     28  H   UNL     1      46.929   4.027   5.330  0.00  0.00    +0.000 HD
ENDBRANCH  18  25
ENDBRANCH  17  21
ENDBRANCH  16  17
ENDBRANCH   1  16
TORSDOF 6
ENDMDL
MODEL 5
REMARK VINA RESULT:    -7.579      2.772      3.954
REMARK INTER + INTRA:         -11.149
REMARK INTER:                 -10.324
REMARK INTRA:                  -0.825
REMARK UNBOUND:                -0.912
REMARK  Name = 
REMARK  6 active torsions:
REMARK  status: ('A' for Active; 'I' for Inactive)
REMARK    1  A    between atoms: C_2  and  C_4
REMARK    2  A    between atoms: C_7  and  O_8
REMARK    3  A    between atoms: O_8  and  C_9
REMARK    4  A    between atoms: C_9  and  C_10
REMARK    5  A    between atoms: C_10  and  C_13
REMARK    6  A    between atoms: C_17  and  N_18
REMARK                            x       y       z     vdW  Elec       q    Type
REMARK                         _______ _______ _______ _____ _____    ______ ____
ROOT
ATOM      1  C   UNL     1      45.055   4.962  12.445  0.00  0.00    +0.000 C 
ATOM      2  F   UNL     1      43.973   5.203  13.244  0.00  0.00    +0.000 F 
ATOM      3  F   UNL     1      45.169   3.599  12.393  0.00  0.00    +0.000 F 
ENDROOT
BRANCH   1   4
ATOM      4  C   UNL     1      46.315   5.611  12.991  0.00  0.00    +0.000 A 
ATOM      5  C   UNL     1      46.888   5.178  14.192  0.00  0.00    +0.000 A 
ATOM      6  C   UNL     1      48.033   5.802  14.684  0.00  0.00    +0.000 A 
ATOM      7  C   UNL     1      48.618   6.853  13.972  0.00  0.00    +0.000 A 
ATOM      8  C   UNL     1      48.086   7.297  12.753  0.00  0.00    +0.000 A 
ATOM      9  C   UNL     1      46.919   6.673  12.291  0.00  0.00    +0.000 A 
BRANCH   8  10
ATOM     10  N   UNL     1      48.768   8.281  12.030  0.00  0.00    +0.000 N 
ATOM     11  C   UNL     1      48.257   9.664  12.108  0.00  0.00    +0.000 C 
ATOM     12  C   UNL     1      48.941  10.521  11.033  0.00  0.00    +0.000 C 
ATOM     13  O   UNL     1      50.370  10.507  11.193  0.00  0.00    +0.000 OA
ATOM     14  C   UNL     1      50.868   9.161  11.086  0.00  0.00    +0.000 C 
ATOM     15  C   UNL     1      50.244   8.231  12.144  0.00  0.00    +0.000 C 
ENDBRANCH   8  10
ENDBRANCH   1   4
BRANCH   1  16
ATOM     16  C   UNL     1      44.756   5.485  11.034  0.00  0.00    +0.000 C 
BRANCH  16  17
ATOM     17  O   UNL     1      44.025   4.511  10.264  0.00  0.00    +0.000 OA
BRANCH  17  21
ATOM     18  C   UNL     1      46.525   2.506   7.678  0.00  0.00    +0.000 A 
ATOM     19  C   UNL     1      46.488   3.902   7.658  0.00  0.00    +0.000 A 
ATOM     20  C   UNL     1      45.632   4.574   8.533  0.00  0.00    +0.000 A 
ATOM     21  C   UNL     1      44.845   3.821   9.394  0.00  0.00    +0.000 A 
ATOM     22  N   UNL     1      44.855   2.472   9.428  0.00  0.00    +0.000 NA
ATOM     23  C   UNL     1      45.685   1.843   8.564  0.00  0.00    +0.000 A 
BRANCH  18  25
ATOM     24  N   UNL     1      48.473   2.316   6.238  0.00  0.00    +0.000 N 
ATOM     25  C   UNL     1      47.399   1.694   6.807  0.00  0.00    +0.000 C 
ATOM     26  O   UNL     1      47.197   0.500   6.641  0.00  0.00    +0.000 OA
ATOM     27  H   UNL     1      49.126   1.712   5.754  0.00  0.00    +0.000 HD
ATOM     28  H   UNL     1      48.817   3.211   6.558  0.00  0.00    +0.000 HD
ENDBRANCH  18  25
ENDBRANCH  17  21
ENDBRANCH  16  17
ENDBRANCH   1  16
TORSDOF 6
ENDMDL
MODEL 6
REMARK VINA RESULT:    -7.242      2.125      2.914
REMARK INTER + INTRA:         -10.694
REMARK INTER:                 -10.244
REMARK INTRA:                  -0.451
REMARK UNBOUND:                -0.912
REMARK  Name = 
REMARK  6 active torsions:
REMARK  status: ('A' for Active; 'I' for Inactive)
REMARK    1  A    between atoms: C_2  and  C_4
REMARK    2  A    between atoms: C_7  and  O_8
REMARK    3  A    between atoms: O_8  and  C_9
REMARK    4  A    between atoms: C_9  and  C_10
REMARK    5  A    between atoms: C_10  and  C_13
REMARK    6  A    between atoms: C_17  and  N_18
REMARK                            x       y       z     vdW  Elec       q    Type
REMARK                         _______ _______ _______ _____ _____    ______ ____
ROOT
ATOM      1  C   UNL     1      45.068   5.929  11.524  0.00  0.00    +0.000 C 
ATOM      2  F   UNL     1      45.743   6.273  10.387  0.00  0.00    +0.000 F 
ATOM      3  F   UNL     1      44.222   6.976  11.772  0.00  0.00    +0.000 F 
ENDROOT
BRANCH   1   4
ATOM      4  C   UNL     1      46.012   5.681  12.687  0.00  0.00    +0.000 A 
ATOM      5  C   UNL     1      46.037   4.447  13.346  0.00  0.00    +0.000 A 
ATOM      6  C   UNL     1      46.897   4.248  14.424  0.00  0.00    +0.000 A 
ATOM      7  C   UNL     1      47.747   5.276  14.840  0.00  0.00    +0.000 A 
ATOM      8  C   UNL     1      47.768   6.518  14.189  0.00  0.00    +0.000 A 
ATOM      9  C   UNL     1      46.874   6.704  13.125  0.00  0.00    +0.000 A 
BRANCH   8  10
ATOM     10  N   UNL     1      48.708   7.476  14.579  0.00  0.00    +0.000 N 
ATOM     11  C   UNL     1      48.329   8.897  14.450  0.00  0.00    +0.000 C 
ATOM     12  C   UNL     1      49.573   9.776  14.639  0.00  0.00    +0.000 C 
ATOM     13  O   UNL     1      50.186   9.537  15.918  0.00  0.00    +0.000 OA
ATOM     14  C   UNL     1      50.582   8.158  16.026  0.00  0.00    +0.000 C 
ATOM     15  C   UNL     1      49.386   7.201  15.866  0.00  0.00    +0.000 C 
ENDBRANCH   8  10
ENDBRANCH   1   4
BRANCH   1  16
ATOM     16  C   UNL     1      44.230   4.676  11.242  0.00  0.00    +0.000 C 
BRANCH  16  17
ATOM     17  O   UNL     1      43.839   4.613   9.857  0.00  0.00    +0.000 OA
BRANCH  17  21
ATOM     18  C   UNL     1      46.439   2.307   7.648  0.00  0.00    +0.000 A 
ATOM     19  C   UNL     1      46.384   3.685   7.430  0.00  0.00    +0.000 A 
ATOM     20  C   UNL     1      45.494   4.459   8.178  0.00  0.00    +0.000 A 
ATOM     21  C   UNL     1      44.693   3.822   9.115  0.00  0.00    +0.000 A 
ATOM     22  N   UNL     1      44.719   2.491   9.339  0.00  0.00    +0.000 NA
ATOM     23  C   UNL     1      45.581   1.762   8.594  0.00  0.00    +0.000 A 
BRANCH  18  25
ATOM     24  N   UNL     1      48.536   1.908   6.487  0.00  0.00    +0.000 N 
ATOM     25  C   UNL     1      47.348   1.396   6.924  0.00  0.00    +0.000 C 
ATOM     26  O   UNL     1      47.069   0.216   6.763  0.00  0.00    +0.000 OA
ATOM     27  H   UNL     1      49.194   1.236   6.111  0.00  0.00    +0.000 HD
ATOM     28  H   UNL     1      48.909   2.784   6.826  0.00  0.00    +0.000 HD
ENDBRANCH  18  25
ENDBRANCH  17  21
ENDBRANCH  16  17
ENDBRANCH   1  16
TORSDOF 6
ENDMDL
MODEL 7
REMARK VINA RESULT:    -6.974      3.283      7.500
REMARK INTER + INTRA:         -10.332
REMARK INTER:                  -9.442
REMARK INTRA:                  -0.890
REMARK UNBOUND:                -0.912
REMARK  Name = 
REMARK  6 active torsions:
REMARK  status: ('A' for Active; 'I' for Inactive)
REMARK    1  A    between atoms: C_2  and  C_4
REMARK    2  A    between atoms: C_7  and  O_8
REMARK    3  A    between atoms: O_8  and  C_9
REMARK    4  A    between atoms: C_9  and  C_10
REMARK    5  A    between atoms: C_10  and  C_13
REMARK    6  A    between atoms: C_17  and  N_18
REMARK                            x       y       z     vdW  Elec       q    Type
REMARK                         _______ _______ _______ _____ _____    ______ ____
ROOT
ATOM      1  C   UNL     1      48.957   8.048  12.117  0.00  0.00    +0.000 C 
ATOM      2  F   UNL     1      49.278   9.367  12.276  0.00  0.00    +0.000 F 
ATOM      3  F   UNL     1      49.572   7.664  10.956  0.00  0.00    +0.000 F 
ENDROOT
BRANCH   1   4
ATOM      4  C   UNL     1      47.454   7.836  12.054  0.00  0.00    +0.000 A 
ATOM      5  C   UNL     1      46.569   8.916  12.144  0.00  0.00    +0.000 A 
ATOM      6  C   UNL     1      45.193   8.696  12.105  0.00  0.00    +0.000 A 
ATOM      7  C   UNL     1      44.696   7.398  11.961  0.00  0.00    +0.000 A 
ATOM      8  C   UNL     1      45.553   6.295  11.842  0.00  0.00    +0.000 A 
ATOM      9  C   UNL     1      46.932   6.537  11.912  0.00  0.00    +0.000 A 
BRANCH   8  10
ATOM     10  N   UNL     1      45.007   5.031  11.597  0.00  0.00    +0.000 N 
ATOM     11  C   UNL     1      43.768   4.670  12.315  0.00  0.00    +0.000 C 
ATOM     12  C   UNL     1      43.500   3.168  12.145  0.00  0.00    +0.000 C 
ATOM     13  O   UNL     1      43.391   2.816  10.755  0.00  0.00    +0.000 OA
ATOM     14  C   UNL     1      44.611   3.141  10.065  0.00  0.00    +0.000 C 
ATOM     15  C   UNL     1      44.950   4.640  10.169  0.00  0.00    +0.000 C 
ENDBRANCH   8  10
ENDBRANCH   1   4
BRANCH   1  16
ATOM     16  C   UNL     1      49.558   7.249  13.280  0.00  0.00    +0.000 C 
BRANCH  16  17
ATOM     17  O   UNL     1      49.026   7.690  14.544  0.00  0.00    +0.000 OA
BRANCH  17  21
ATOM     18  C   UNL     1      48.013   4.574  17.037  0.00  0.00    +0.000 A 
ATOM     19  C   UNL     1      48.756   5.644  17.538  0.00  0.00    +0.000 A 
ATOM     20  C   UNL     1      49.102   6.694  16.684  0.00  0.00    +0.000 A 
ATOM     21  C   UNL     1      48.690   6.630  15.361  0.00  0.00    +0.000 A 
ATOM     22  N   UNL     1      47.980   5.603  14.849  0.00  0.00    +0.000 NA
ATOM     23  C   UNL     1      47.666   4.594  15.693  0.00  0.00    +0.000 A 
BRANCH  18  25
ATOM     24  N   UNL     1      48.286   3.155  18.991  0.00  0.00    +0.000 N 
ATOM     25  C   UNL     1      47.583   3.419  17.851  0.00  0.00    +0.000 C 
ATOM     26  O   UNL     1      46.605   2.753  17.542  0.00  0.00    +0.000 OA
ATOM     27  H   UNL     1      47.895   2.444  19.596  0.00  0.00    +0.000 HD
ATOM     28  H   UNL     1      48.916   3.826  19.410  0.00  0.00    +0.000 HD
ENDBRANCH  18  25
ENDBRANCH  17  21
ENDBRANCH  16  17
ENDBRANCH   1  16
TORSDOF 6
ENDMDL
MODEL 8
REMARK VINA RESULT:    -6.860      4.180      6.794
REMARK INTER + INTRA:         -10.178
REMARK INTER:                  -9.525
REMARK INTRA:                  -0.652
REMARK UNBOUND:                -0.912
REMARK  Name = 
REMARK  6 active torsions:
REMARK  status: ('A' for Active; 'I' for Inactive)
REMARK    1  A    between atoms: C_2  and  C_4
REMARK    2  A    between atoms: C_7  and  O_8
REMARK    3  A    between atoms: O_8  and  C_9
REMARK    4  A    between atoms: C_9  and  C_10
REMARK    5  A    between atoms: C_10  and  C_13
REMARK    6  A    between atoms: C_17  and  N_18
REMARK                            x       y       z     vdW  Elec       q    Type
REMARK                         _______ _______ _______ _____ _____    ______ ____
ROOT
ATOM      1  C   UNL     1      48.031   3.064  16.785  0.00  0.00    +0.000 C 
ATOM      2  F   UNL     1      47.075   2.824  17.733  0.00  0.00    +0.000 F 
ATOM      3  F   UNL     1      48.223   1.864  16.157  0.00  0.00    +0.000 F 
ENDROOT
BRANCH   1   4
ATOM      4  C   UNL     1      49.316   3.590  17.401  0.00  0.00    +0.000 A 
ATOM      5  C   UNL     1      49.371   4.864  17.976  0.00  0.00    +0.000 A 
ATOM      6  C   UNL     1      50.566   5.334  18.517  0.00  0.00    +0.000 A 
ATOM      7  C   UNL     1      51.708   4.528  18.497  0.00  0.00    +0.000 A 
ATOM      8  C   UNL     1      51.684   3.237  17.951  0.00  0.00    +0.000 A 
ATOM      9  C   UNL     1      50.478   2.796  17.389  0.00  0.00    +0.000 A 
BRANCH   8  10
ATOM     10  N   UNL     1      52.824   2.434  18.049  0.00  0.00    +0.000 N 
ATOM     11  C   UNL     1      53.708   2.641  19.214  0.00  0.00    +0.000 C 
ATOM     12  C   UNL     1      55.029   1.892  18.990  0.00  0.00    +0.000 C 
ATOM     13  O   UNL     1      54.800   0.488  18.781  0.00  0.00    +0.000 OA
ATOM     14  C   UNL     1      53.963   0.290  17.627  0.00  0.00    +0.000 C 
ATOM     15  C   UNL     1      52.602   0.996  17.773  0.00  0.00    +0.000 C 
ENDBRANCH   8  10
ENDBRANCH   1   4
BRANCH   1  16
ATOM     16  C   UNL     1      47.477   4.069  15.767  0.00  0.00    +0.000 C 
BRANCH  16  17
ATOM     17  O   UNL     1      47.546   3.543  14.428  0.00  0.00    +0.000 OA
BRANCH  17  21
ATOM     18  C   UNL     1      44.402   4.847  12.110  0.00  0.00    +0.000 A 
ATOM     19  C   UNL     1      45.085   5.757  12.920  0.00  0.00    +0.000 A 
ATOM     20  C   UNL     1      46.146   5.305  13.708  0.00  0.00    +0.000 A 
ATOM     21  C   UNL     1      46.480   3.959  13.656  0.00  0.00    +0.000 A 
ATOM     22  N   UNL     1      45.830   3.058  12.890  0.00  0.00    +0.000 NA
ATOM     23  C   UNL     1      44.800   3.517  12.143  0.00  0.00    +0.000 A 
BRANCH  18  25
ATOM     24  N   UNL     1      42.283   5.986  11.765  0.00  0.00    +0.000 N 
ATOM     25  C   UNL     1      43.275   5.216  11.229  0.00  0.00    +0.000 C 
ATOM     26  O   UNL     1      43.255   4.886  10.052  0.00  0.00    +0.000 OA
ATOM     27  H   UNL     1      41.592   6.333  11.111  0.00  0.00    +0.000 HD
ATOM     28  H   UNL     1      42.394   6.490  12.634  0.00  0.00    +0.000 HD
ENDBRANCH  18  25
ENDBRANCH  17  21
ENDBRANCH  16  17
ENDBRANCH   1  16
TORSDOF 6
ENDMDL
MODEL 9
REMARK VINA RESULT:    -6.842      3.880      6.539
REMARK INTER + INTRA:         -10.154
REMARK INTER:                  -9.517
REMARK INTRA:                  -0.636
REMARK UNBOUND:                -0.912
REMARK  Name = 
REMARK  6 active torsions:
REMARK  status: ('A' for Active; 'I' for Inactive)
REMARK    1  A    between atoms: C_2  and  C_4
REMARK    2  A    between atoms: C_7  and  O_8
REMARK    3  A    between atoms: O_8  and  C_9
REMARK    4  A    between atoms: C_9  and  C_10
REMARK    5  A    between atoms: C_10  and  C_13
REMARK    6  A    between atoms: C_17  and  N_18
REMARK                            x       y       z     vdW  Elec       q    Type
REMARK                         _______ _______ _______ _____ _____    ______ ____
ROOT
ATOM      1  C   UNL     1      48.090   3.008  16.874  0.00  0.00    +0.000 C 
ATOM      2  F   UNL     1      47.122   2.375  17.601  0.00  0.00    +0.000 F 
ATOM      3  F   UNL     1      48.768   2.010  16.230  0.00  0.00    +0.000 F 
ENDROOT
BRANCH   1   4
ATOM      4  C   UNL     1      49.009   3.835  17.758  0.00  0.00    +0.000 A 
ATOM      5  C   UNL     1      50.385   3.586  17.799  0.00  0.00    +0.000 A 
ATOM      6  C   UNL     1      51.206   4.344  18.632  0.00  0.00    +0.000 A 
ATOM      7  C   UNL     1      50.659   5.362  19.417  0.00  0.00    +0.000 A 
ATOM      8  C   UNL     1      49.289   5.656  19.382  0.00  0.00    +0.000 A 
ATOM      9  C   UNL     1      48.478   4.864  18.558  0.00  0.00    +0.000 A 
BRANCH   8  10
ATOM     10  N   UNL     1      48.808   6.751  20.107  0.00  0.00    +0.000 N 
ATOM     11  C   UNL     1      48.761   8.057  19.421  0.00  0.00    +0.000 C 
ATOM     12  C   UNL     1      48.495   9.165  20.451  0.00  0.00    +0.000 C 
ATOM     13  O   UNL     1      47.266   8.928  21.159  0.00  0.00    +0.000 OA
ATOM     14  C   UNL     1      47.328   7.669  21.851  0.00  0.00    +0.000 C 
ATOM     15  C   UNL     1      47.576   6.493  20.888  0.00  0.00    +0.000 C 
ENDBRANCH   8  10
ENDBRANCH   1   4
BRANCH   1  16
ATOM     16  C   UNL     1      47.417   3.902  15.825  0.00  0.00    +0.000 C 
BRANCH  16  17
ATOM     17  O   UNL     1      47.435   3.281  14.525  0.00  0.00    +0.000 OA
BRANCH  17  21
ATOM     18  C   UNL     1      44.686   4.990  11.980  0.00  0.00    +0.000 A 
ATOM     19  C   UNL     1      45.424   5.802  12.844  0.00  0.00    +0.000 A 
ATOM     20  C   UNL     1      46.349   5.213  13.709  0.00  0.00    +0.000 A 
ATOM     21  C   UNL     1      46.498   3.834  13.676  0.00  0.00    +0.000 A 
ATOM     22  N   UNL     1      45.792   3.026  12.858  0.00  0.00    +0.000 NA
ATOM     23  C   UNL     1      44.894   3.618  12.037  0.00  0.00    +0.000 A 
BRANCH  18  25
ATOM     24  N   UNL     1      43.214   6.768  11.219  0.00  0.00    +0.000 N 
ATOM     25  C   UNL     1      43.691   5.504  11.018  0.00  0.00    +0.000 C 
ATOM     26  O   UNL     1      43.343   4.843  10.049  0.00  0.00    +0.000 OA
ATOM     27  H   UNL     1      42.636   7.144  10.478  0.00  0.00    +0.000 HD
ATOM     28  H   UNL     1      43.666   7.428  11.837  0.00  0.00    +0.000 HD
ENDBRANCH  18  25
ENDBRANCH  17  21
ENDBRANCH  16  17
ENDBRANCH   1  16
TORSDOF 6
ENDMDL
