MODEL 1
REMARK VINA RESULT:    -8.784      0.000      0.000
REMARK INTER + INTRA:         -13.044
REMARK INTER:                 -11.865
REMARK INTRA:                  -1.180
REMARK UNBOUND:                -1.180
REMARK  Name = 
REMARK  7 active torsions:
REMARK  status: ('A' for Active; 'I' for Inactive)
REMARK    1  A    between atoms: C_1  and  C_2
REMARK    2  A    between atoms: C_2  and  N_3
REMARK    3  A    between atoms: C_2  and  C_16
REMARK    4  A    between atoms: C_4  and  C_6
REMARK    5  A    between atoms: C_19  and  O_20
REMARK    6  A    between atoms: O_20  and  C_21
REMARK    7  A    between atoms: C_21  and  C_22
REMARK                            x       y       z     vdW  Elec       q    Type
REMARK                         _______ _______ _______ _____ _____    ______ ____
ROOT
ATOM      1  C   UNL     1      46.089   8.818  13.252  0.00  0.00    +0.000 C 
ATOM      2  C   UNL     1      46.931   7.551  13.074  0.00  0.00    +0.000 C 
ENDROOT
BRANCH   2   3
ATOM      3  C   UNL     1      46.181   6.495  12.281  0.00  0.00    +0.000 A 
ATOM      4  C   UNL     1      46.297   6.443  10.885  0.00  0.00    +0.000 A 
ATOM      5  C   UNL     1      45.634   5.454  10.151  0.00  0.00    +0.000 A 
ATOM      6  C   UNL     1      44.860   4.492  10.799  0.00  0.00    +0.000 A 
ATOM      7  C   UNL     1      44.710   4.557  12.185  0.00  0.00    +0.000 A 
ATOM      8  C   UNL     1      45.375   5.540  12.920  0.00  0.00    +0.000 A 
BRANCH   6   9
ATOM      9  O   UNL     1      44.305   3.534   9.992  0.00  0.00    +0.000 OA
BRANCH   9  10
ATOM     10  C   UNL     1      44.414   3.788   8.590  0.00  0.00    +0.000 C 
BRANCH  10  11
ATOM     11  C   UNL     1      45.540   2.980   7.994  0.00  0.00    +0.000 A 
ATOM     12  C   UNL     1      45.768   1.666   8.423  0.00  0.00    +0.000 A 
ATOM     13  C   UNL     1      46.745   0.879   7.810  0.00  0.00    +0.000 A 
ATOM     14  C   UNL     1      47.502   1.401   6.763  0.00  0.00    +0.000 A 
ATOM     15  C   UNL     1      47.288   2.708   6.331  0.00  0.00    +0.000 A 
ATOM     16  C   UNL     1      46.309   3.496   6.942  0.00  0.00    +0.000 A 
ENDBRANCH  10  11
ENDBRANCH   9  10
ENDBRANCH   6   9
ENDBRANCH   2   3
BRANCH   2  17
ATOM     17  N   UNL     1      47.341   7.018  14.361  0.00  0.00    +0.000 N 
ATOM     18  C   UNL     1      48.651   6.746  14.661  0.00  0.00    +0.000 C 
ATOM     19  O   UNL     1      49.554   6.908  13.846  0.00  0.00    +0.000 OA
ATOM     20  H   UNL     1      46.612   6.788  15.027  0.00  0.00    +0.000 HD
BRANCH  18  21
ATOM     21  C   UNL     1      48.933   6.306  16.035  0.00  0.00    +0.000 A 
ATOM     22  C   UNL     1      49.768   7.072  16.838  0.00  0.00    +0.000 A 
ATOM     23  S   UNL     1      49.975   6.441  18.409  0.00  0.00    +0.000 S 
ATOM     24  C   UNL     1      48.996   5.095  18.055  0.00  0.00    +0.000 A 
ATOM     25  N   UNL     1      48.785   4.125  18.984  0.00  0.00    +0.000 NA
ATOM     26  C   UNL     1      48.069   3.135  18.565  0.00  0.00    +0.000 A 
ATOM     27  N   UNL     1      47.532   3.035  17.307  0.00  0.00    +0.000 N 
ATOM     28  C   UNL     1      47.648   4.032  16.366  0.00  0.00    +0.000 A 
ATOM     29  O   UNL     1      47.037   3.977  15.309  0.00  0.00    +0.000 OA
ATOM     30  C   UNL     1      48.494   5.142  16.766  0.00  0.00    +0.000 A 
ATOM     31  H   UNL     1      46.953   2.250  17.053  0.00  0.00    +0.000 HD
ENDBRANCH  18  21
ENDBRANCH   2  17
TORSDOF 6
ENDMDL
MODEL 2
REMARK VINA RESULT:    -8.403      1.813      2.451
REMARK INTER + INTRA:         -12.530
REMARK INTER:                 -11.361
REMARK INTRA:                  -1.169
REMARK UNBOUND:                -1.180
REMARK  Name = 
REMARK  7 active torsions:
REMARK  status: ('A' for Active; 'I' for Inactive)
REMARK    1  A    between atoms: C_1  and  C_2
REMARK    2  A    between atoms: C_2  and  N_3
REMARK    3  A    between atoms: C_2  and  C_16
REMARK    4  A    between atoms: C_4  and  C_6
REMARK    5  A    between atoms: C_19  and  O_20
REMARK    6  A    between atoms: O_20  and  C_21
REMARK    7  A    between atoms: C_21  and  C_22
REMARK                            x       y       z     vdW  Elec       q    Type
REMARK                         _______ _______ _______ _____ _____    ______ ____
ROOT
ATOM      1  C   UNL     1      47.274   8.387  13.619  0.00  0.00    +0.000 C 
ATOM      2  C   UNL     1      47.684   6.911  13.638  0.00  0.00    +0.000 C 
ENDROOT
BRANCH   2   3
ATOM      3  C   UNL     1      46.768   6.071  12.767  0.00  0.00    +0.000 A 
ATOM      4  C   UNL     1      46.387   6.525  11.496  0.00  0.00    +0.000 A 
ATOM      5  C   UNL     1      45.569   5.743  10.675  0.00  0.00    +0.000 A 
ATOM      6  C   UNL     1      45.132   4.488  11.101  0.00  0.00    +0.000 A 
ATOM      7  C   UNL     1      45.476   4.043  12.377  0.00  0.00    +0.000 A 
ATOM      8  C   UNL     1      46.297   4.820  13.197  0.00  0.00    +0.000 A 
BRANCH   6   9
ATOM      9  O   UNL     1      44.387   3.780  10.195  0.00  0.00    +0.000 OA
BRANCH   9  10
ATOM     10  C   UNL     1      44.597   4.138   8.828  0.00  0.00    +0.000 C 
BRANCH  10  11
ATOM     11  C   UNL     1      45.549   3.169   8.170  0.00  0.00    +0.000 A 
ATOM     12  C   UNL     1      46.497   3.631   7.246  0.00  0.00    +0.000 A 
ATOM     13  C   UNL     1      47.443   2.760   6.705  0.00  0.00    +0.000 A 
ATOM     14  C   UNL     1      47.451   1.419   7.085  0.00  0.00    +0.000 A 
ATOM     15  C   UNL     1      46.511   0.947   7.999  0.00  0.00    +0.000 A 
ATOM     16  C   UNL     1      45.564   1.818   8.542  0.00  0.00    +0.000 A 
ENDBRANCH  10  11
ENDBRANCH   9  10
ENDBRANCH   6   9
ENDBRANCH   2   3
BRANCH   2  17
ATOM     17  N   UNL     1      47.698   6.397  14.996  0.00  0.00    +0.000 N 
ATOM     18  C   UNL     1      48.844   6.327  15.744  0.00  0.00    +0.000 C 
ATOM     19  O   UNL     1      49.936   6.667  15.299  0.00  0.00    +0.000 OA
ATOM     20  H   UNL     1      46.830   6.024  15.366  0.00  0.00    +0.000 HD
BRANCH  18  21
ATOM     21  C   UNL     1      48.695   5.880  17.136  0.00  0.00    +0.000 A 
ATOM     22  C   UNL     1      48.951   4.553  17.458  0.00  0.00    +0.000 A 
ATOM     23  S   UNL     1      48.759   4.200  19.115  0.00  0.00    +0.000 S 
ATOM     24  C   UNL     1      48.278   5.796  19.454  0.00  0.00    +0.000 A 
ATOM     25  N   UNL     1      47.930   6.165  20.716  0.00  0.00    +0.000 NA
ATOM     26  C   UNL     1      47.533   7.389  20.822  0.00  0.00    +0.000 A 
ATOM     27  N   UNL     1      47.470   8.283  19.783  0.00  0.00    +0.000 N 
ATOM     28  C   UNL     1      47.894   7.978  18.510  0.00  0.00    +0.000 A 
ATOM     29  O   UNL     1      47.961   8.838  17.645  0.00  0.00    +0.000 OA
ATOM     30  C   UNL     1      48.293   6.595  18.324  0.00  0.00    +0.000 A 
ATOM     31  H   UNL     1      47.181   9.236  19.939  0.00  0.00    +0.000 HD
ENDBRANCH  18  21
ENDBRANCH   2  17
TORSDOF 6
ENDMDL
MODEL 3
REMARK VINA RESULT:    -7.738      2.800      4.135
REMARK INTER + INTRA:         -11.631
REMARK INTER:                 -10.358
REMARK INTRA:                  -1.274
REMARK UNBOUND:                -1.180
REMARK  Name = 
REMARK  7 active torsions:
REMARK  status: ('A' for Active; 'I' for Inactive)
REMARK    1  A    between atoms: C_1  and  C_2
REMARK    2  A    between atoms: C_2  and  N_3
REMARK    3  A    between atoms: C_2  and  C_16
REMARK    4  A    between atoms: C_4  and  C_6
REMARK    5  A    between atoms: C_19  and  O_20
REMARK    6  A    between atoms: O_20  and  C_21
REMARK    7  A    between atoms: C_21  and  C_22
REMARK                            x       y       z     vdW  Elec       q    Type
REMARK                         _______ _______ _______ _____ _____    ______ ____
ROOT
ATOM      1  C   UNL     1      47.326   4.631  14.990  0.00  0.00    +0.000 C 
ATOM      2  C   UNL     1      46.865   5.702  13.997  0.00  0.00    +0.000 C 
ENDROOT
BRANCH   2   3
ATOM      3  C   UNL     1      46.076   5.093  12.852  0.00  0.00    +0.000 A 
ATOM      4  C   UNL     1      45.878   5.814  11.666  0.00  0.00    +0.000 A 
ATOM      5  C   UNL     1      45.179   5.248  10.595  0.00  0.00    +0.000 A 
ATOM      6  C   UNL     1      44.683   3.947  10.684  0.00  0.00    +0.000 A 
ATOM      7  C   UNL     1      44.844   3.235  11.872  0.00  0.00    +0.000 A 
ATOM      8  C   UNL     1      45.545   3.796  12.941  0.00  0.00    +0.000 A 
BRANCH   6   9
ATOM      9  O   UNL     1      44.068   3.468   9.557  0.00  0.00    +0.000 OA
BRANCH   9  10
ATOM     10  C   UNL     1      44.488   2.165   9.147  0.00  0.00    +0.000 C 
BRANCH  10  11
ATOM     11  C   UNL     1      45.641   2.262   8.179  0.00  0.00    +0.000 A 
ATOM     12  C   UNL     1      46.513   1.178   8.011  0.00  0.00    +0.000 A 
ATOM     13  C   UNL     1      47.524   1.223   7.050  0.00  0.00    +0.000 A 
ATOM     14  C   UNL     1      47.670   2.353   6.247  0.00  0.00    +0.000 A 
ATOM     15  C   UNL     1      46.812   3.438   6.407  0.00  0.00    +0.000 A 
ATOM     16  C   UNL     1      45.799   3.394   7.367  0.00  0.00    +0.000 A 
ENDBRANCH  10  11
ENDBRANCH   9  10
ENDBRANCH   6   9
ENDBRANCH   2   3
BRANCH   2  17
ATOM     17  N   UNL     1      47.997   6.454  13.485  0.00  0.00    +0.000 N 
ATOM     18  C   UNL     1      47.998   7.823  13.411  0.00  0.00    +0.000 C 
ATOM     19  O   UNL     1      47.027   8.495  13.744  0.00  0.00    +0.000 OA
ATOM     20  H   UNL     1      48.782   5.928  13.118  0.00  0.00    +0.000 HD
BRANCH  18  21
ATOM     21  C   UNL     1      49.248   8.456  12.967  0.00  0.00    +0.000 A 
ATOM     22  C   UNL     1      49.230   9.300  11.864  0.00  0.00    +0.000 A 
ATOM     23  S   UNL     1      50.752   9.976  11.494  0.00  0.00    +0.000 S 
ATOM     24  C   UNL     1      51.498   9.124  12.763  0.00  0.00    +0.000 A 
ATOM     25  N   UNL     1      52.836   9.232  12.981  0.00  0.00    +0.000 NA
ATOM     26  C   UNL     1      53.280   8.491  13.941  0.00  0.00    +0.000 A 
ATOM     27  N   UNL     1      52.504   7.664  14.713  0.00  0.00    +0.000 N 
ATOM     28  C   UNL     1      51.136   7.590  14.584  0.00  0.00    +0.000 A 
ATOM     29  O   UNL     1      50.461   6.957  15.381  0.00  0.00    +0.000 OA
ATOM     30  C   UNL     1      50.594   8.359  13.479  0.00  0.00    +0.000 A 
ATOM     31  H   UNL     1      52.908   7.135  15.470  0.00  0.00    +0.000 HD
ENDBRANCH  18  21
ENDBRANCH   2  17
TORSDOF 6
ENDMDL
MODEL 4
REMARK VINA RESULT:    -7.680      2.561      4.372
REMARK INTER + INTRA:         -11.553
REMARK INTER:                 -10.368
REMARK INTRA:                  -1.185
REMARK UNBOUND:                -1.180
REMARK  Name = 
REMARK  7 active torsions:
REMARK  status: ('A' for Active; 'I' for Inactive)
REMARK    1  A    between atoms: C_1  and  C_2
REMARK    2  A    between atoms: C_2  and  N_3
REMARK    3  A    between atoms: C_2  and  C_16
REMARK    4  A    between atoms: C_4  and  C_6
REMARK    5  A    between atoms: C_19  and  O_20
REMARK    6  A    between atoms: O_20  and  C_21
REMARK    7  A    between atoms: C_21  and  C_22
REMARK                            x       y       z     vdW  Elec       q    Type
REMARK                         _______ _______ _______ _____ _____    ______ ____
ROOT
ATOM      1  C   UNL     1      47.309   4.322  15.113  0.00  0.00    +0.000 C 
ATOM      2  C   UNL     1      46.957   5.509  14.211  0.00  0.00    +0.000 C 
ENDROOT
BRANCH   2   3
ATOM      3  C   UNL     1      46.248   5.053  12.948  0.00  0.00    +0.000 A 
ATOM      4  C   UNL     1      45.662   3.782  12.885  0.00  0.00    +0.000 A 
ATOM      5  C   UNL     1      44.980   3.366  11.736  0.00  0.00    +0.000 A 
ATOM      6  C   UNL     1      44.857   4.220  10.640  0.00  0.00    +0.000 A 
ATOM      7  C   UNL     1      45.467   5.474  10.680  0.00  0.00    +0.000 A 
ATOM      8  C   UNL     1      46.144   5.892  11.827  0.00  0.00    +0.000 A 
BRANCH   6   9
ATOM      9  O   UNL     1      44.118   3.738   9.592  0.00  0.00    +0.000 OA
BRANCH   9  10
ATOM     10  C   UNL     1      44.439   2.405   9.189  0.00  0.00    +0.000 C 
BRANCH  10  11
ATOM     11  C   UNL     1      45.585   2.412   8.208  0.00  0.00    +0.000 A 
ATOM     12  C   UNL     1      46.435   1.302   8.109  0.00  0.00    +0.000 A 
ATOM     13  C   UNL     1      47.437   1.260   7.139  0.00  0.00    +0.000 A 
ATOM     14  C   UNL     1      47.598   2.328   6.258  0.00  0.00    +0.000 A 
ATOM     15  C   UNL     1      46.762   3.438   6.349  0.00  0.00    +0.000 A 
ATOM     16  C   UNL     1      45.757   3.481   7.318  0.00  0.00    +0.000 A 
ENDBRANCH  10  11
ENDBRANCH   9  10
ENDBRANCH   6   9
ENDBRANCH   2   3
BRANCH   2  17
ATOM     17  N   UNL     1      48.145   6.272  13.873  0.00  0.00    +0.000 N 
ATOM     18  C   UNL     1      48.807   7.047  14.790  0.00  0.00    +0.000 C 
ATOM     19  O   UNL     1      48.414   7.169  15.946  0.00  0.00    +0.000 OA
ATOM     20  H   UNL     1      48.447   6.266  12.905  0.00  0.00    +0.000 HD
BRANCH  18  21
ATOM     21  C   UNL     1      50.051   7.684  14.337  0.00  0.00    +0.000 A 
ATOM     22  C   UNL     1      51.200   7.563  15.109  0.00  0.00    +0.000 A 
ATOM     23  S   UNL     1      52.563   8.334  14.435  0.00  0.00    +0.000 S 
ATOM     24  C   UNL     1      51.655   8.902  13.114  0.00  0.00    +0.000 A 
ATOM     25  N   UNL     1      52.230   9.678  12.156  0.00  0.00    +0.000 NA
ATOM     26  C   UNL     1      51.415  10.084  11.241  0.00  0.00    +0.000 A 
ATOM     27  N   UNL     1      50.081   9.771  11.187  0.00  0.00    +0.000 N 
ATOM     28  C   UNL     1      49.478   8.920  12.084  0.00  0.00    +0.000 A 
ATOM     29  O   UNL     1      48.325   8.547  11.924  0.00  0.00    +0.000 OA
ATOM     30  C   UNL     1      50.337   8.483  13.169  0.00  0.00    +0.000 A 
ATOM     31  H   UNL     1      49.505  10.094  10.425  0.00  0.00    +0.000 HD
ENDBRANCH  18  21
ENDBRANCH   2  17
TORSDOF 6
ENDMDL
MODEL 5
REMARK VINA RESULT:    -7.599      1.654      2.216
REMARK INTER + INTRA:         -11.445
REMARK INTER:                 -10.647
REMARK INTRA:                  -0.797
REMARK UNBOUND:                -1.180
REMARK  Name = 
REMARK  7 active torsions:
REMARK  status: ('A' for Active; 'I' for Inactive)
REMARK    1  A    between atoms: C_1  and  C_2
REMARK    2  A    between atoms: C_2  and  N_3
REMARK    3  A    between atoms: C_2  and  C_16
REMARK    4  A    between atoms: C_4  and  C_6
REMARK    5  A    between atoms: C_19  and  O_20
REMARK    6  A    between atoms: O_20  and  C_21
REMARK    7  A    between atoms: C_21  and  C_22
REMARK                            x       y       z     vdW  Elec       q    Type
REMARK                         _______ _______ _______ _____ _____    ______ ____
ROOT
ATOM      1  C   UNL     1      49.103   8.120  13.174  0.00  0.00    +0.000 C 
ATOM      2  C   UNL     1      48.613   6.770  13.708  0.00  0.00    +0.000 C 
ENDROOT
BRANCH   2   3
ATOM      3  C   UNL     1      47.431   6.254  12.907  0.00  0.00    +0.000 A 
ATOM      4  C   UNL     1      46.749   5.100  13.317  0.00  0.00    +0.000 A 
ATOM      5  C   UNL     1      45.639   4.636  12.602  0.00  0.00    +0.000 A 
ATOM      6  C   UNL     1      45.183   5.325  11.479  0.00  0.00    +0.000 A 
ATOM      7  C   UNL     1      45.877   6.454  11.043  0.00  0.00    +0.000 A 
ATOM      8  C   UNL     1      46.981   6.922  11.758  0.00  0.00    +0.000 A 
BRANCH   6   9
ATOM      9  O   UNL     1      44.054   4.819  10.890  0.00  0.00    +0.000 OA
BRANCH   9  10
ATOM     10  C   UNL     1      44.106   3.425  10.581  0.00  0.00    +0.000 C 
BRANCH  10  11
ATOM     11  C   UNL     1      45.008   3.181   9.396  0.00  0.00    +0.000 A 
ATOM     12  C   UNL     1      45.476   1.889   9.121  0.00  0.00    +0.000 A 
ATOM     13  C   UNL     1      46.231   1.637   7.975  0.00  0.00    +0.000 A 
ATOM     14  C   UNL     1      46.524   2.675   7.092  0.00  0.00    +0.000 A 
ATOM     15  C   UNL     1      46.068   3.964   7.357  0.00  0.00    +0.000 A 
ATOM     16  C   UNL     1      45.311   4.218   8.503  0.00  0.00    +0.000 A 
ENDBRANCH  10  11
ENDBRANCH   9  10
ENDBRANCH   6   9
ENDBRANCH   2   3
BRANCH   2  17
ATOM     17  N   UNL     1      48.265   6.866  15.115  0.00  0.00    +0.000 N 
ATOM     18  C   UNL     1      49.154   6.569  16.114  0.00  0.00    +0.000 C 
ATOM     19  O   UNL     1      50.291   6.171  15.879  0.00  0.00    +0.000 OA
ATOM     20  H   UNL     1      47.307   7.106  15.346  0.00  0.00    +0.000 HD
BRANCH  18  21
ATOM     21  C   UNL     1      48.700   6.807  17.491  0.00  0.00    +0.000 A 
ATOM     22  C   UNL     1      48.353   8.093  17.883  0.00  0.00    +0.000 A 
ATOM     23  S   UNL     1      47.822   8.198  19.501  0.00  0.00    +0.000 S 
ATOM     24  C   UNL     1      48.086   6.536  19.750  0.00  0.00    +0.000 A 
ATOM     25  N   UNL     1      47.856   5.970  20.965  0.00  0.00    +0.000 NA
ATOM     26  C   UNL     1      48.149   4.714  21.031  0.00  0.00    +0.000 A 
ATOM     27  N   UNL     1      48.637   3.970  19.987  0.00  0.00    +0.000 N 
ATOM     28  C   UNL     1      48.803   4.481  18.721  0.00  0.00    +0.000 A 
ATOM     29  O   UNL     1      49.099   3.756  17.782  0.00  0.00    +0.000 OA
ATOM     30  C   UNL     1      48.544   5.904  18.608  0.00  0.00    +0.000 A 
ATOM     31  H   UNL     1      48.815   2.984  20.096  0.00  0.00    +0.000 HD
ENDBRANCH  18  21
ENDBRANCH   2  17
TORSDOF 6
ENDMDL
MODEL 6
REMARK VINA RESULT:    -7.293      3.677      8.102
REMARK INTER + INTRA:         -11.031
REMARK INTER:                  -9.812
REMARK INTRA:                  -1.219
REMARK UNBOUND:                -1.180
REMARK  Name = 
REMARK  7 active torsions:
REMARK  status: ('A' for Active; 'I' for Inactive)
REMARK    1  A    between atoms: C_1  and  C_2
REMARK    2  A    between atoms: C_2  and  N_3
REMARK    3  A    between atoms: C_2  and  C_16
REMARK    4  A    between atoms: C_4  and  C_6
REMARK    5  A    between atoms: C_19  and  O_20
REMARK    6  A    between atoms: O_20  and  C_21
REMARK    7  A    between atoms: C_21  and  C_22
REMARK                            x       y       z     vdW  Elec       q    Type
REMARK                         _______ _______ _______ _____ _____    ______ ____
ROOT
ATOM      1  C   UNL     1      49.613   8.220  11.512  0.00  0.00    +0.000 C 
ATOM      2  C   UNL     1      48.482   7.797  12.455  0.00  0.00    +0.000 C 
ENDROOT
BRANCH   2   3
ATOM      3  C   UNL     1      49.020   7.379  13.812  0.00  0.00    +0.000 A 
ATOM      4  C   UNL     1      48.244   6.581  14.664  0.00  0.00    +0.000 A 
ATOM      5  C   UNL     1      48.744   6.165  15.903  0.00  0.00    +0.000 A 
ATOM      6  C   UNL     1      50.032   6.525  16.302  0.00  0.00    +0.000 A 
ATOM      7  C   UNL     1      50.797   7.348  15.476  0.00  0.00    +0.000 A 
ATOM      8  C   UNL     1      50.302   7.760  14.238  0.00  0.00    +0.000 A 
BRANCH   6   9
ATOM      9  O   UNL     1      50.445   6.014  17.505  0.00  0.00    +0.000 OA
BRANCH   9  10
ATOM     10  C   UNL     1      49.830   4.780  17.880  0.00  0.00    +0.000 C 
BRANCH  10  11
ATOM     11  C   UNL     1      50.817   3.644  17.771  0.00  0.00    +0.000 A 
ATOM     12  C   UNL     1      52.146   3.824  18.179  0.00  0.00    +0.000 A 
ATOM     13  C   UNL     1      53.041   2.753  18.171  0.00  0.00    +0.000 A 
ATOM     14  C   UNL     1      52.615   1.493  17.755  0.00  0.00    +0.000 A 
ATOM     15  C   UNL     1      51.298   1.304  17.343  0.00  0.00    +0.000 A 
ATOM     16  C   UNL     1      50.400   2.374  17.352  0.00  0.00    +0.000 A 
ENDBRANCH  10  11
ENDBRANCH   9  10
ENDBRANCH   6   9
ENDBRANCH   2   3
BRANCH   2  17
ATOM     17  N   UNL     1      47.697   6.724  11.872  0.00  0.00    +0.000 N 
ATOM     18  C   UNL     1      46.352   6.841  11.636  0.00  0.00    +0.000 C 
ATOM     19  O   UNL     1      45.722   7.852  11.935  0.00  0.00    +0.000 OA
ATOM     20  H   UNL     1      48.166   5.843  11.695  0.00  0.00    +0.000 HD
BRANCH  18  21
ATOM     21  C   UNL     1      45.703   5.716  10.949  0.00  0.00    +0.000 A 
ATOM     22  C   UNL     1      45.819   5.600   9.570  0.00  0.00    +0.000 A 
ATOM     23  S   UNL     1      45.034   4.228   8.929  0.00  0.00    +0.000 S 
ATOM     24  C   UNL     1      44.468   3.768  10.466  0.00  0.00    +0.000 A 
ATOM     25  N   UNL     1      43.684   2.667  10.617  0.00  0.00    +0.000 NA
ATOM     26  C   UNL     1      43.280   2.465  11.827  0.00  0.00    +0.000 A 
ATOM     27  N   UNL     1      43.604   3.254  12.902  0.00  0.00    +0.000 N 
ATOM     28  C   UNL     1      44.462   4.325  12.809  0.00  0.00    +0.000 A 
ATOM     29  O   UNL     1      44.844   4.916  13.808  0.00  0.00    +0.000 OA
ATOM     30  C   UNL     1      44.897   4.631  11.458  0.00  0.00    +0.000 A 
ATOM     31  H   UNL     1      43.281   3.022  13.828  0.00  0.00    +0.000 HD
ENDBRANCH  18  21
ENDBRANCH   2  17
TORSDOF 6
ENDMDL
MODEL 7
REMARK VINA RESULT:    -7.264      3.439      8.372
REMARK INTER + INTRA:         -10.991
REMARK INTER:                  -9.722
REMARK INTRA:                  -1.269
REMARK UNBOUND:                -1.180
REMARK  Name = 
REMARK  7 active torsions:
REMARK  status: ('A' for Active; 'I' for Inactive)
REMARK    1  A    between atoms: C_1  and  C_2
REMARK    2  A    between atoms: C_2  and  N_3
REMARK    3  A    between atoms: C_2  and  C_16
REMARK    4  A    between atoms: C_4  and  C_6
REMARK    5  A    between atoms: C_19  and  O_20
REMARK    6  A    between atoms: O_20  and  C_21
REMARK    7  A    between atoms: C_21  and  C_22
REMARK                            x       y       z     vdW  Elec       q    Type
REMARK                         _______ _______ _______ _____ _____    ______ ____
ROOT
ATOM      1  C   UNL     1      48.866   7.727  11.481  0.00  0.00    +0.000 C 
ATOM      2  C   UNL     1      47.923   7.369  12.635  0.00  0.00    +0.000 C 
ENDROOT
BRANCH   2   3
ATOM      3  C   UNL     1      48.689   7.140  13.925  0.00  0.00    +0.000 A 
ATOM      4  C   UNL     1      48.112   6.403  14.969  0.00  0.00    +0.000 A 
ATOM      5  C   UNL     1      48.823   6.161  16.149  0.00  0.00    +0.000 A 
ATOM      6  C   UNL     1      50.126   6.636  16.299  0.00  0.00    +0.000 A 
ATOM      7  C   UNL     1      50.695   7.401  15.281  0.00  0.00    +0.000 A 
ATOM      8  C   UNL     1      49.989   7.640  14.100  0.00  0.00    +0.000 A 
BRANCH   6   9
ATOM      9  O   UNL     1      50.752   6.291  17.468  0.00  0.00    +0.000 OA
BRANCH   9  10
ATOM     10  C   UNL     1      50.084   5.291  18.239  0.00  0.00    +0.000 C 
BRANCH  10  11
ATOM     11  C   UNL     1      50.754   3.951  18.059  0.00  0.00    +0.000 A 
ATOM     12  C   UNL     1      50.057   2.890  17.464  0.00  0.00    +0.000 A 
ATOM     13  C   UNL     1      50.697   1.678  17.206  0.00  0.00    +0.000 A 
ATOM     14  C   UNL     1      52.041   1.516  17.539  0.00  0.00    +0.000 A 
ATOM     15  C   UNL     1      52.743   2.561  18.134  0.00  0.00    +0.000 A 
ATOM     16  C   UNL     1      52.104   3.776  18.392  0.00  0.00    +0.000 A 
ENDBRANCH  10  11
ENDBRANCH   9  10
ENDBRANCH   6   9
ENDBRANCH   2   3
BRANCH   2  17
ATOM     17  N   UNL     1      47.126   6.200  12.307  0.00  0.00    +0.000 N 
ATOM     18  C   UNL     1      45.757   6.201  12.372  0.00  0.00    +0.000 C 
ATOM     19  O   UNL     1      45.122   7.183  12.743  0.00  0.00    +0.000 OA
ATOM     20  H   UNL     1      47.621   5.344  12.083  0.00  0.00    +0.000 HD
BRANCH  18  21
ATOM     21  C   UNL     1      45.076   4.981  11.917  0.00  0.00    +0.000 A 
ATOM     22  C   UNL     1      44.349   4.225  12.827  0.00  0.00    +0.000 A 
ATOM     23  S   UNL     1      43.598   2.857  12.138  0.00  0.00    +0.000 S 
ATOM     24  C   UNL     1      44.261   3.199  10.608  0.00  0.00    +0.000 A 
ATOM     25  N   UNL     1      44.029   2.376   9.550  0.00  0.00    +0.000 NA
ATOM     26  C   UNL     1      44.636   2.723   8.465  0.00  0.00    +0.000 A 
ATOM     27  N   UNL     1      45.440   3.827   8.336  0.00  0.00    +0.000 N 
ATOM     28  C   UNL     1      45.631   4.732   9.355  0.00  0.00    +0.000 A 
ATOM     29  O   UNL     1      46.233   5.778   9.164  0.00  0.00    +0.000 OA
ATOM     30  C   UNL     1      45.019   4.356  10.616  0.00  0.00    +0.000 A 
ATOM     31  H   UNL     1      45.859   4.060   7.450  0.00  0.00    +0.000 HD
ENDBRANCH  18  21
ENDBRANCH   2  17
TORSDOF 6
ENDMDL
MODEL 8
REMARK VINA RESULT:    -6.517      3.635      9.007
REMARK INTER + INTRA:          -9.983
REMARK INTER:                  -8.779
REMARK INTRA:                  -1.204
REMARK UNBOUND:                -1.180
REMARK  Name = 
REMARK  7 active torsions:
REMARK  status: ('A' for Active; 'I' for Inactive)
REMARK    1  A    between atoms: C_1  and  C_2
REMARK    2  A    between atoms: C_2  and  N_3
REMARK    3  A    between atoms: C_2  and  C_16
REMARK    4  A    between atoms: C_4  and  C_6
REMARK    5  A    between atoms: C_19  and  O_20
REMARK    6  A    between atoms: O_20  and  C_21
REMARK    7  A    between atoms: C_21  and  C_22
REMARK                            x       y       z     vdW  Elec       q    Type
REMARK                         _______ _______ _______ _____ _____    ______ ____
ROOT
ATOM      1  C   UNL     1      49.556   7.893  11.948  0.00  0.00    +0.000 C 
ATOM      2  C   UNL     1      48.403   7.492  12.873  0.00  0.00    +0.000 C 
ENDROOT
BRANCH   2   3
ATOM      3  C   UNL     1      48.915   7.004  14.217  0.00  0.00    +0.000 A 
ATOM      4  C   UNL     1      50.161   7.430  14.696  0.00  0.00    +0.000 A 
ATOM      5  C   UNL     1      50.626   7.009  15.946  0.00  0.00    +0.000 A 
ATOM      6  C   UNL     1      49.847   6.172  16.745  0.00  0.00    +0.000 A 
ATOM      7  C   UNL     1      48.621   5.715  16.261  0.00  0.00    +0.000 A 
ATOM      8  C   UNL     1      48.153   6.137  15.016  0.00  0.00    +0.000 A 
BRANCH   6   9
ATOM      9  O   UNL     1      50.370   5.870  17.975  0.00  0.00    +0.000 OA
BRANCH   9  10
ATOM     10  C   UNL     1      49.598   4.951  18.750  0.00  0.00    +0.000 C 
BRANCH  10  11
ATOM     11  C   UNL     1      48.962   5.655  19.924  0.00  0.00    +0.000 A 
ATOM     12  C   UNL     1      49.017   7.051  20.022  0.00  0.00    +0.000 A 
ATOM     13  C   UNL     1      48.350   7.717  21.051  0.00  0.00    +0.000 A 
ATOM     14  C   UNL     1      47.623   6.991  21.993  0.00  0.00    +0.000 A 
ATOM     15  C   UNL     1      47.566   5.602  21.909  0.00  0.00    +0.000 A 
ATOM     16  C   UNL     1      48.230   4.934  20.878  0.00  0.00    +0.000 A 
ENDBRANCH  10  11
ENDBRANCH   9  10
ENDBRANCH   6   9
ENDBRANCH   2   3
BRANCH   2  17
ATOM     17  N   UNL     1      47.571   6.477  12.252  0.00  0.00    +0.000 N 
ATOM     18  C   UNL     1      46.393   6.776  11.620  0.00  0.00    +0.000 C 
ATOM     19  O   UNL     1      45.952   7.921  11.569  0.00  0.00    +0.000 OA
ATOM     20  H   UNL     1      47.859   5.509  12.352  0.00  0.00    +0.000 HD
BRANCH  18  21
ATOM     21  C   UNL     1      45.705   5.665  10.949  0.00  0.00    +0.000 A 
ATOM     22  C   UNL     1      45.715   5.594   9.561  0.00  0.00    +0.000 A 
ATOM     23  S   UNL     1      44.896   4.234   8.938  0.00  0.00    +0.000 S 
ATOM     24  C   UNL     1      44.456   3.718  10.499  0.00  0.00    +0.000 A 
ATOM     25  N   UNL     1      43.696   2.604  10.674  0.00  0.00    +0.000 NA
ATOM     26  C   UNL     1      43.390   2.358  11.904  0.00  0.00    +0.000 A 
ATOM     27  N   UNL     1      43.787   3.116  12.976  0.00  0.00    +0.000 N 
ATOM     28  C   UNL     1      44.625   4.200  12.852  0.00  0.00    +0.000 A 
ATOM     29  O   UNL     1      45.077   4.765  13.837  0.00  0.00    +0.000 OA
ATOM     30  C   UNL     1      44.951   4.555  11.482  0.00  0.00    +0.000 A 
ATOM     31  H   UNL     1      43.540   2.851  13.916  0.00  0.00    +0.000 HD
ENDBRANCH  18  21
ENDBRANCH   2  17
TORSDOF 6
ENDMDL
