MODEL 1
REMARK VINA RESULT:    -7.503      0.000      0.000
REMARK INTER + INTRA:         -11.176
REMARK INTER:                 -10.354
REMARK INTRA:                  -0.822
REMARK UNBOUND:                -0.822
REMARK  Name = 
REMARK  7 active torsions:
REMARK  status: ('A' for Active; 'I' for Inactive)
REMARK    1  A    between atoms: N_1  and  C_2
REMARK    2  A    between atoms: C_2  and  C_3
REMARK    3  A    between atoms: C_7  and  S_8
REMARK    4  A    between atoms: S_8  and  C_9
REMARK    5  A    between atoms: C_9  and  C_10
REMARK    6  A    between atoms: C_10  and  C_11
REMARK    7  A    between atoms: C_15  and  C_16
REMARK                            x       y       z     vdW  Elec       q    Type
REMARK                         _______ _______ _______ _____ _____    ______ ____
ROOT
ATOM      1  C   UNL     1      43.225   3.857  11.157  0.00  0.00    +0.000 C 
ENDROOT
BRANCH   1   2
ATOM      2  S   UNL     1      43.584   4.072  12.936  0.00  0.00    +0.000 S 
BRANCH   2   7
ATOM      3  C   UNL     1      45.654   7.511  12.286  0.00  0.00    +0.000 A 
ATOM      4  C   UNL     1      46.932   7.212  12.777  0.00  0.00    +0.000 A 
ATOM      5  C   UNL     1      47.207   5.954  13.311  0.00  0.00    +0.000 A 
ATOM      6  C   UNL     1      46.205   4.984  13.373  0.00  0.00    +0.000 A 
ATOM      7  C   UNL     1      44.920   5.261  12.901  0.00  0.00    +0.000 A 
ATOM      8  C   UNL     1      44.661   6.520  12.341  0.00  0.00    +0.000 A 
BRANCH   3   9
ATOM      9  C   UNL     1      45.334   8.889  11.764  0.00  0.00    +0.000 C 
BRANCH   9  10
ATOM     10  N   UNL     1      44.720   9.737  12.782  0.00  0.00    +0.000 NA
ATOM     11  H   UNL     1      44.436   9.156  13.567  0.00  0.00    +0.000 HD
ATOM     12  H   UNL     1      43.866  10.140  12.397  0.00  0.00    +0.000 HD
ENDBRANCH   9  10
ENDBRANCH   3   9
ENDBRANCH   2   7
ENDBRANCH   1   2
BRANCH   1  13
ATOM     13  C   UNL     1      43.983   2.647  10.609  0.00  0.00    +0.000 C 
BRANCH  13  14
ATOM     14  C   UNL     1      44.901   3.058   9.481  0.00  0.00    +0.000 A 
ATOM     15  C   UNL     1      45.109   4.416   9.193  0.00  0.00    +0.000 A 
ATOM     16  C   UNL     1      45.989   4.799   8.181  0.00  0.00    +0.000 A 
ATOM     17  C   UNL     1      46.692   3.831   7.466  0.00  0.00    +0.000 A 
ATOM     18  C   UNL     1      46.519   2.474   7.760  0.00  0.00    +0.000 A 
ATOM     19  C   UNL     1      45.603   2.089   8.747  0.00  0.00    +0.000 A 
BRANCH  18  20
ATOM     20  C   UNL     1      47.346   1.485   7.021  0.00  0.00    +0.000 C 
ATOM     21  N   UNL     1      48.461   1.956   6.382  0.00  0.00    +0.000 N 
ATOM     22  O   UNL     1      47.018   0.311   6.932  0.00  0.00    +0.000 OA
ATOM     23  H   UNL     1      48.631   2.940   6.235  0.00  0.00    +0.000 HD
ATOM     24  H   UNL     1      48.921   1.304   5.758  0.00  0.00    +0.000 HD
ENDBRANCH  18  20
ENDBRANCH  13  14
ENDBRANCH   1  13
TORSDOF 7
ENDMDL
MODEL 2
REMARK VINA RESULT:    -6.681      2.749      6.798
REMARK INTER + INTRA:         -10.042
REMARK INTER:                  -9.232
REMARK INTRA:                  -0.810
REMARK UNBOUND:                -0.822
REMARK  Name = 
REMARK  7 active torsions:
REMARK  status: ('A' for Active; 'I' for Inactive)
REMARK    1  A    between atoms: N_1  and  C_2
REMARK    2  A    between atoms: C_2  and  C_3
REMARK    3  A    between atoms: C_7  and  S_8
REMARK    4  A    between atoms: S_8  and  C_9
REMARK    5  A    between atoms: C_9  and  C_10
REMARK    6  A    between atoms: C_10  and  C_11
REMARK    7  A    between atoms: C_15  and  C_16
REMARK                            x       y       z     vdW  Elec       q    Type
REMARK                         _______ _______ _______ _____ _____    ______ ____
ROOT
ATOM      1  C   UNL     1      44.905   3.359  12.465  0.00  0.00    +0.000 C 
ENDROOT
BRANCH   1   2
ATOM      2  S   UNL     1      43.786   2.991  11.068  0.00  0.00    +0.000 S 
BRANCH   2   7
ATOM      3  C   UNL     1      46.303   2.256   7.960  0.00  0.00    +0.000 A 
ATOM      4  C   UNL     1      46.562   3.535   7.450  0.00  0.00    +0.000 A 
ATOM      5  C   UNL     1      45.989   4.660   8.039  0.00  0.00    +0.000 A 
ATOM      6  C   UNL     1      45.139   4.521   9.138  0.00  0.00    +0.000 A 
ATOM      7  C   UNL     1      44.855   3.256   9.659  0.00  0.00    +0.000 A 
ATOM      8  C   UNL     1      45.459   2.132   9.076  0.00  0.00    +0.000 A 
BRANCH   3   9
ATOM      9  C   UNL     1      46.871   1.030   7.289  0.00  0.00    +0.000 C 
BRANCH   9  10
ATOM     10  N   UNL     1      48.026   1.342   6.453  0.00  0.00    +0.000 NA
ATOM     11  H   UNL     1      48.865   0.988   6.905  0.00  0.00    +0.000 HD
ATOM     12  H   UNL     1      48.129   2.355   6.406  0.00  0.00    +0.000 HD
ENDBRANCH   9  10
ENDBRANCH   3   9
ENDBRANCH   2   7
ENDBRANCH   1   2
BRANCH   1  13
ATOM     13  C   UNL     1      44.453   4.633  13.181  0.00  0.00    +0.000 C 
BRANCH  13  14
ATOM     14  C   UNL     1      45.352   5.794  12.824  0.00  0.00    +0.000 A 
ATOM     15  C   UNL     1      46.730   5.598  12.649  0.00  0.00    +0.000 A 
ATOM     16  C   UNL     1      47.555   6.659  12.277  0.00  0.00    +0.000 A 
ATOM     17  C   UNL     1      47.008   7.920  12.048  0.00  0.00    +0.000 A 
ATOM     18  C   UNL     1      45.631   8.127  12.189  0.00  0.00    +0.000 A 
ATOM     19  C   UNL     1      44.810   7.071  12.604  0.00  0.00    +0.000 A 
BRANCH  18  20
ATOM     20  C   UNL     1      45.085   9.470  11.861  0.00  0.00    +0.000 C 
ATOM     21  N   UNL     1      43.816   9.521  11.352  0.00  0.00    +0.000 N 
ATOM     22  O   UNL     1      45.758  10.483  11.981  0.00  0.00    +0.000 OA
ATOM     23  H   UNL     1      43.327   8.703  11.020  0.00  0.00    +0.000 HD
ATOM     24  H   UNL     1      43.523  10.420  10.989  0.00  0.00    +0.000 HD
ENDBRANCH  18  20
ENDBRANCH  13  14
ENDBRANCH   1  13
TORSDOF 7
ENDMDL
MODEL 3
REMARK VINA RESULT:    -6.669      2.624      6.652
REMARK INTER + INTRA:         -10.025
REMARK INTER:                  -9.300
REMARK INTRA:                  -0.725
REMARK UNBOUND:                -0.822
REMARK  Name = 
REMARK  7 active torsions:
REMARK  status: ('A' for Active; 'I' for Inactive)
REMARK    1  A    between atoms: N_1  and  C_2
REMARK    2  A    between atoms: C_2  and  C_3
REMARK    3  A    between atoms: C_7  and  S_8
REMARK    4  A    between atoms: S_8  and  C_9
REMARK    5  A    between atoms: C_9  and  C_10
REMARK    6  A    between atoms: C_10  and  C_11
REMARK    7  A    between atoms: C_15  and  C_16
REMARK                            x       y       z     vdW  Elec       q    Type
REMARK                         _______ _______ _______ _____ _____    ______ ____
ROOT
ATOM      1  C   UNL     1      44.816   3.131  12.125  0.00  0.00    +0.000 C 
ENDROOT
BRANCH   1   2
ATOM      2  S   UNL     1      43.907   2.613  10.627  0.00  0.00    +0.000 S 
BRANCH   2   7
ATOM      3  C   UNL     1      46.630   2.309   7.622  0.00  0.00    +0.000 A 
ATOM      4  C   UNL     1      46.873   3.645   7.275  0.00  0.00    +0.000 A 
ATOM      5  C   UNL     1      46.226   4.679   7.950  0.00  0.00    +0.000 A 
ATOM      6  C   UNL     1      45.317   4.391   8.970  0.00  0.00    +0.000 A 
ATOM      7  C   UNL     1      45.049   3.067   9.327  0.00  0.00    +0.000 A 
ATOM      8  C   UNL     1      45.726   2.035   8.661  0.00  0.00    +0.000 A 
BRANCH   3   9
ATOM      9  C   UNL     1      47.281   1.184   6.856  0.00  0.00    +0.000 C 
BRANCH   9  10
ATOM     10  N   UNL     1      48.300   1.665   5.928  0.00  0.00    +0.000 NA
ATOM     11  H   UNL     1      48.219   1.152   5.054  0.00  0.00    +0.000 HD
ATOM     12  H   UNL     1      49.219   1.441   6.310  0.00  0.00    +0.000 HD
ENDBRANCH   9  10
ENDBRANCH   3   9
ENDBRANCH   2   7
ENDBRANCH   1   2
BRANCH   1  13
ATOM     13  C   UNL     1      44.157   4.368  12.740  0.00  0.00    +0.000 C 
BRANCH  13  14
ATOM     14  C   UNL     1      45.072   5.566  12.641  0.00  0.00    +0.000 A 
ATOM     15  C   UNL     1      44.687   6.694  11.900  0.00  0.00    +0.000 A 
ATOM     16  C   UNL     1      45.511   7.818  11.842  0.00  0.00    +0.000 A 
ATOM     17  C   UNL     1      46.714   7.838  12.546  0.00  0.00    +0.000 A 
ATOM     18  C   UNL     1      47.099   6.733  13.314  0.00  0.00    +0.000 A 
ATOM     19  C   UNL     1      46.291   5.589  13.336  0.00  0.00    +0.000 A 
BRANCH  18  20
ATOM     20  C   UNL     1      48.352   6.831  14.105  0.00  0.00    +0.000 C 
ATOM     21  N   UNL     1      48.225   7.004  15.457  0.00  0.00    +0.000 N 
ATOM     22  O   UNL     1      49.452   6.821  13.572  0.00  0.00    +0.000 OA
ATOM     23  H   UNL     1      47.351   7.253  15.896  0.00  0.00    +0.000 HD
ATOM     24  H   UNL     1      49.078   7.226  15.956  0.00  0.00    +0.000 HD
ENDBRANCH  18  20
ENDBRANCH  13  14
ENDBRANCH   1  13
TORSDOF 7
ENDMDL
MODEL 4
REMARK VINA RESULT:    -6.649      2.878      6.928
REMARK INTER + INTRA:          -9.998
REMARK INTER:                  -9.592
REMARK INTRA:                  -0.406
REMARK UNBOUND:                -0.822
REMARK  Name = 
REMARK  7 active torsions:
REMARK  status: ('A' for Active; 'I' for Inactive)
REMARK    1  A    between atoms: N_1  and  C_2
REMARK    2  A    between atoms: C_2  and  C_3
REMARK    3  A    between atoms: C_7  and  S_8
REMARK    4  A    between atoms: S_8  and  C_9
REMARK    5  A    between atoms: C_9  and  C_10
REMARK    6  A    between atoms: C_10  and  C_11
REMARK    7  A    between atoms: C_15  and  C_16
REMARK                            x       y       z     vdW  Elec       q    Type
REMARK                         _______ _______ _______ _____ _____    ______ ____
ROOT
ATOM      1  C   UNL     1      44.036   3.910  10.948  0.00  0.00    +0.000 C 
ENDROOT
BRANCH   1   2
ATOM      2  S   UNL     1      44.143   4.483   9.217  0.00  0.00    +0.000 S 
BRANCH   2   7
ATOM      3  C   UNL     1      46.610   2.555   6.621  0.00  0.00    +0.000 A 
ATOM      4  C   UNL     1      46.724   1.275   7.180  0.00  0.00    +0.000 A 
ATOM      5  C   UNL     1      46.048   0.955   8.356  0.00  0.00    +0.000 A 
ATOM      6  C   UNL     1      45.259   1.913   8.996  0.00  0.00    +0.000 A 
ATOM      7  C   UNL     1      45.138   3.200   8.465  0.00  0.00    +0.000 A 
ATOM      8  C   UNL     1      45.801   3.504   7.267  0.00  0.00    +0.000 A 
BRANCH   3   9
ATOM      9  C   UNL     1      47.387   2.926   5.383  0.00  0.00    +0.000 C 
BRANCH   9  10
ATOM     10  N   UNL     1      48.426   1.950   5.069  0.00  0.00    +0.000 NA
ATOM     11  H   UNL     1      48.913   2.246   4.227  0.00  0.00    +0.000 HD
ATOM     12  H   UNL     1      47.980   1.060   4.847  0.00  0.00    +0.000 HD
ENDBRANCH   9  10
ENDBRANCH   3   9
ENDBRANCH   2   7
ENDBRANCH   1   2
BRANCH   1  13
ATOM     13  C   UNL     1      43.911   5.107  11.893  0.00  0.00    +0.000 C 
BRANCH  13  14
ATOM     14  C   UNL     1      45.241   5.418  12.540  0.00  0.00    +0.000 A 
ATOM     15  C   UNL     1      46.015   6.498  12.089  0.00  0.00    +0.000 A 
ATOM     16  C   UNL     1      47.223   6.813  12.712  0.00  0.00    +0.000 A 
ATOM     17  C   UNL     1      47.654   6.072  13.811  0.00  0.00    +0.000 A 
ATOM     18  C   UNL     1      46.879   5.011  14.293  0.00  0.00    +0.000 A 
ATOM     19  C   UNL     1      45.688   4.668  13.639  0.00  0.00    +0.000 A 
BRANCH  18  20
ATOM     20  C   UNL     1      47.343   4.299  15.512  0.00  0.00    +0.000 C 
ATOM     21  N   UNL     1      47.486   5.042  16.653  0.00  0.00    +0.000 N 
ATOM     22  O   UNL     1      47.647   3.115  15.489  0.00  0.00    +0.000 OA
ATOM     23  H   UNL     1      47.475   6.051  16.652  0.00  0.00    +0.000 HD
ATOM     24  H   UNL     1      47.950   4.580  17.425  0.00  0.00    +0.000 HD
ENDBRANCH  18  20
ENDBRANCH  13  14
ENDBRANCH   1  13
TORSDOF 7
ENDMDL
MODEL 5
REMARK VINA RESULT:    -6.112      3.843      7.380
REMARK INTER + INTRA:          -9.256
REMARK INTER:                  -8.856
REMARK INTRA:                  -0.400
REMARK UNBOUND:                -0.822
REMARK  Name = 
REMARK  7 active torsions:
REMARK  status: ('A' for Active; 'I' for Inactive)
REMARK    1  A    between atoms: N_1  and  C_2
REMARK    2  A    between atoms: C_2  and  C_3
REMARK    3  A    between atoms: C_7  and  S_8
REMARK    4  A    between atoms: S_8  and  C_9
REMARK    5  A    between atoms: C_9  and  C_10
REMARK    6  A    between atoms: C_10  and  C_11
REMARK    7  A    between atoms: C_15  and  C_16
REMARK                            x       y       z     vdW  Elec       q    Type
REMARK                         _______ _______ _______ _____ _____    ______ ____
ROOT
ATOM      1  C   UNL     1      45.689   5.721  13.032  0.00  0.00    +0.000 C 
ENDROOT
BRANCH   1   2
ATOM      2  S   UNL     1      44.905   6.251  11.470  0.00  0.00    +0.000 S 
BRANCH   2   7
ATOM      3  C   UNL     1      45.259   3.477   8.517  0.00  0.00    +0.000 A 
ATOM      4  C   UNL     1      44.643   2.345   9.067  0.00  0.00    +0.000 A 
ATOM      5  C   UNL     1      44.092   2.392  10.346  0.00  0.00    +0.000 A 
ATOM      6  C   UNL     1      44.162   3.567  11.098  0.00  0.00    +0.000 A 
ATOM      7  C   UNL     1      44.781   4.706  10.577  0.00  0.00    +0.000 A 
ATOM      8  C   UNL     1      45.307   4.656   9.278  0.00  0.00    +0.000 A 
BRANCH   3   9
ATOM      9  C   UNL     1      45.910   3.415   7.158  0.00  0.00    +0.000 C 
BRANCH   9  10
ATOM     10  N   UNL     1      47.061   4.307   7.056  0.00  0.00    +0.000 NA
ATOM     11  H   UNL     1      47.866   3.771   6.742  0.00  0.00    +0.000 HD
ATOM     12  H   UNL     1      47.289   4.652   7.988  0.00  0.00    +0.000 HD
ENDBRANCH   9  10
ENDBRANCH   3   9
ENDBRANCH   2   7
ENDBRANCH   1   2
BRANCH   1  13
ATOM     13  C   UNL     1      47.187   6.031  13.003  0.00  0.00    +0.000 C 
BRANCH  13  14
ATOM     14  C   UNL     1      47.791   5.877  14.379  0.00  0.00    +0.000 A 
ATOM     15  C   UNL     1      48.741   6.799  14.845  0.00  0.00    +0.000 A 
ATOM     16  C   UNL     1      49.269   6.684  16.132  0.00  0.00    +0.000 A 
ATOM     17  C   UNL     1      48.831   5.665  16.975  0.00  0.00    +0.000 A 
ATOM     18  C   UNL     1      47.862   4.755  16.537  0.00  0.00    +0.000 A 
ATOM     19  C   UNL     1      47.365   4.845  15.231  0.00  0.00    +0.000 A 
BRANCH  18  20
ATOM     20  C   UNL     1      47.374   3.732  17.498  0.00  0.00    +0.000 C 
ATOM     21  N   UNL     1      48.117   3.535  18.631  0.00  0.00    +0.000 N 
ATOM     22  O   UNL     1      46.387   3.050  17.265  0.00  0.00    +0.000 OA
ATOM     23  H   UNL     1      49.050   3.902  18.743  0.00  0.00    +0.000 HD
ATOM     24  H   UNL     1      47.861   2.732  19.192  0.00  0.00    +0.000 HD
ENDBRANCH  18  20
ENDBRANCH  13  14
ENDBRANCH   1  13
TORSDOF 7
ENDMDL
MODEL 6
REMARK VINA RESULT:    -5.982      2.331      3.281
REMARK INTER + INTRA:          -9.078
REMARK INTER:                  -8.746
REMARK INTRA:                  -0.331
REMARK UNBOUND:                -0.822
REMARK  Name = 
REMARK  7 active torsions:
REMARK  status: ('A' for Active; 'I' for Inactive)
REMARK    1  A    between atoms: N_1  and  C_2
REMARK    2  A    between atoms: C_2  and  C_3
REMARK    3  A    between atoms: C_7  and  S_8
REMARK    4  A    between atoms: S_8  and  C_9
REMARK    5  A    between atoms: C_9  and  C_10
REMARK    6  A    between atoms: C_10  and  C_11
REMARK    7  A    between atoms: C_15  and  C_16
REMARK                            x       y       z     vdW  Elec       q    Type
REMARK                         _______ _______ _______ _____ _____    ______ ____
ROOT
ATOM      1  C   UNL     1      45.625   5.728  10.440  0.00  0.00    +0.000 C 
ENDROOT
BRANCH   1   2
ATOM      2  S   UNL     1      44.849   6.330  11.980  0.00  0.00    +0.000 S 
BRANCH   2   7
ATOM      3  C   UNL     1      47.329   4.900  14.869  0.00  0.00    +0.000 A 
ATOM      4  C   UNL     1      48.275   5.924  15.012  0.00  0.00    +0.000 A 
ATOM      5  C   UNL     1      48.184   7.084  14.244  0.00  0.00    +0.000 A 
ATOM      6  C   UNL     1      47.153   7.229  13.313  0.00  0.00    +0.000 A 
ATOM      7  C   UNL     1      46.204   6.219  13.143  0.00  0.00    +0.000 A 
ATOM      8  C   UNL     1      46.289   5.068  13.939  0.00  0.00    +0.000 A 
BRANCH   3   9
ATOM      9  C   UNL     1      47.457   3.618  15.652  0.00  0.00    +0.000 C 
BRANCH   9  10
ATOM     10  N   UNL     1      46.713   3.660  16.907  0.00  0.00    +0.000 NA
ATOM     11  H   UNL     1      46.596   2.712  17.253  0.00  0.00    +0.000 HD
ATOM     12  H   UNL     1      45.777   4.017  16.719  0.00  0.00    +0.000 HD
ENDBRANCH   9  10
ENDBRANCH   3   9
ENDBRANCH   2   7
ENDBRANCH   1   2
BRANCH   1  13
ATOM     13  C   UNL     1      44.587   5.015   9.570  0.00  0.00    +0.000 C 
BRANCH  13  14
ATOM     14  C   UNL     1      45.166   3.752   8.974  0.00  0.00    +0.000 A 
ATOM     15  C   UNL     1      44.761   2.494   9.446  0.00  0.00    +0.000 A 
ATOM     16  C   UNL     1      45.262   1.327   8.868  0.00  0.00    +0.000 A 
ATOM     17  C   UNL     1      46.149   1.405   7.796  0.00  0.00    +0.000 A 
ATOM     18  C   UNL     1      46.540   2.651   7.295  0.00  0.00    +0.000 A 
ATOM     19  C   UNL     1      46.070   3.822   7.903  0.00  0.00    +0.000 A 
BRANCH  18  20
ATOM     20  C   UNL     1      47.428   2.681   6.104  0.00  0.00    +0.000 C 
ATOM     21  N   UNL     1      48.750   2.386   6.303  0.00  0.00    +0.000 N 
ATOM     22  O   UNL     1      47.016   3.014   5.003  0.00  0.00    +0.000 OA
ATOM     23  H   UNL     1      49.167   2.342   7.221  0.00  0.00    +0.000 HD
ATOM     24  H   UNL     1      49.365   2.565   5.518  0.00  0.00    +0.000 HD
ENDBRANCH  18  20
ENDBRANCH  13  14
ENDBRANCH   1  13
TORSDOF 7
ENDMDL
MODEL 7
REMARK VINA RESULT:    -5.931      4.935      7.101
REMARK INTER + INTRA:          -9.007
REMARK INTER:                  -7.776
REMARK INTRA:                  -1.231
REMARK UNBOUND:                -0.822
REMARK  Name = 
REMARK  7 active torsions:
REMARK  status: ('A' for Active; 'I' for Inactive)
REMARK    1  A    between atoms: N_1  and  C_2
REMARK    2  A    between atoms: C_2  and  C_3
REMARK    3  A    between atoms: C_7  and  S_8
REMARK    4  A    between atoms: S_8  and  C_9
REMARK    5  A    between atoms: C_9  and  C_10
REMARK    6  A    between atoms: C_10  and  C_11
REMARK    7  A    between atoms: C_15  and  C_16
REMARK                            x       y       z     vdW  Elec       q    Type
REMARK                         _______ _______ _______ _____ _____    ______ ____
ROOT
ATOM      1  C   UNL     1      50.023   7.370  14.916  0.00  0.00    +0.000 C 
ENDROOT
BRANCH   1   2
ATOM      2  S   UNL     1      50.067   7.596  16.728  0.00  0.00    +0.000 S 
BRANCH   2   7
ATOM      3  C   UNL     1      49.315   3.669  17.474  0.00  0.00    +0.000 A 
ATOM      4  C   UNL     1      48.088   3.702  18.148  0.00  0.00    +0.000 A 
ATOM      5  C   UNL     1      47.445   4.915  18.387  0.00  0.00    +0.000 A 
ATOM      6  C   UNL     1      48.028   6.113  17.969  0.00  0.00    +0.000 A 
ATOM      7  C   UNL     1      49.257   6.109  17.305  0.00  0.00    +0.000 A 
ATOM      8  C   UNL     1      49.882   4.881  17.044  0.00  0.00    +0.000 A 
BRANCH   3   9
ATOM      9  C   UNL     1      50.045   2.366  17.265  0.00  0.00    +0.000 C 
BRANCH   9  10
ATOM     10  N   UNL     1      49.638   1.695  16.034  0.00  0.00    +0.000 NA
ATOM     11  H   UNL     1      49.748   2.340  15.256  0.00  0.00    +0.000 HD
ATOM     12  H   UNL     1      48.642   1.481  16.094  0.00  0.00    +0.000 HD
ENDBRANCH   9  10
ENDBRANCH   3   9
ENDBRANCH   2   7
ENDBRANCH   1   2
BRANCH   1  13
ATOM     13  C   UNL     1      48.885   8.194  14.309  0.00  0.00    +0.000 C 
BRANCH  13  14
ATOM     14  C   UNL     1      47.899   7.299  13.596  0.00  0.00    +0.000 A 
ATOM     15  C   UNL     1      47.174   7.778  12.493  0.00  0.00    +0.000 A 
ATOM     16  C   UNL     1      46.295   6.941  11.806  0.00  0.00    +0.000 A 
ATOM     17  C   UNL     1      46.152   5.610  12.195  0.00  0.00    +0.000 A 
ATOM     18  C   UNL     1      46.890   5.109  13.274  0.00  0.00    +0.000 A 
ATOM     19  C   UNL     1      47.740   5.961  13.989  0.00  0.00    +0.000 A 
BRANCH  18  20
ATOM     20  C   UNL     1      46.759   3.666  13.603  0.00  0.00    +0.000 C 
ATOM     21  N   UNL     1      45.825   2.948  12.905  0.00  0.00    +0.000 N 
ATOM     22  O   UNL     1      47.411   3.149  14.499  0.00  0.00    +0.000 OA
ATOM     23  H   UNL     1      45.115   3.384  12.336  0.00  0.00    +0.000 HD
ATOM     24  H   UNL     1      45.641   2.014  13.249  0.00  0.00    +0.000 HD
ENDBRANCH  18  20
ENDBRANCH  13  14
ENDBRANCH   1  13
TORSDOF 7
ENDMDL
MODEL 8
REMARK VINA RESULT:    -5.796      5.311      6.921
REMARK INTER + INTRA:          -8.821
REMARK INTER:                  -8.378
REMARK INTRA:                  -0.443
REMARK UNBOUND:                -0.822
REMARK  Name = 
REMARK  7 active torsions:
REMARK  status: ('A' for Active; 'I' for Inactive)
REMARK    1  A    between atoms: N_1  and  C_2
REMARK    2  A    between atoms: C_2  and  C_3
REMARK    3  A    between atoms: C_7  and  S_8
REMARK    4  A    between atoms: S_8  and  C_9
REMARK    5  A    between atoms: C_9  and  C_10
REMARK    6  A    between atoms: C_10  and  C_11
REMARK    7  A    between atoms: C_15  and  C_16
REMARK                            x       y       z     vdW  Elec       q    Type
REMARK                         _______ _______ _______ _____ _____    ______ ____
ROOT
ATOM      1  C   UNL     1      47.119   3.885  15.545  0.00  0.00    +0.000 C 
ENDROOT
BRANCH   1   2
ATOM      2  S   UNL     1      47.330   4.156  17.339  0.00  0.00    +0.000 S 
BRANCH   2   7
ATOM      3  C   UNL     1      51.096   2.626  17.453  0.00  0.00    +0.000 A 
ATOM      4  C   UNL     1      51.882   3.737  17.788  0.00  0.00    +0.000 A 
ATOM      5  C   UNL     1      51.292   4.982  18.001  0.00  0.00    +0.000 A 
ATOM      6  C   UNL     1      49.910   5.135  17.867  0.00  0.00    +0.000 A 
ATOM      7  C   UNL     1      49.106   4.046  17.522  0.00  0.00    +0.000 A 
ATOM      8  C   UNL     1      49.706   2.793  17.337  0.00  0.00    +0.000 A 
BRANCH   3   9
ATOM      9  C   UNL     1      51.735   1.291  17.161  0.00  0.00    +0.000 C 
BRANCH   9  10
ATOM     10  N   UNL     1      51.455   0.306  18.201  0.00  0.00    +0.000 NA
ATOM     11  H   UNL     1      50.807   0.711  18.873  0.00  0.00    +0.000 HD
ATOM     12  H   UNL     1      52.318   0.116  18.710  0.00  0.00    +0.000 HD
ENDBRANCH   9  10
ENDBRANCH   3   9
ENDBRANCH   2   7
ENDBRANCH   1   2
BRANCH   1  13
ATOM     13  C   UNL     1      47.494   5.152  14.773  0.00  0.00    +0.000 C 
BRANCH  13  14
ATOM     14  C   UNL     1      46.711   5.243  13.483  0.00  0.00    +0.000 A 
ATOM     15  C   UNL     1      46.976   6.267  12.562  0.00  0.00    +0.000 A 
ATOM     16  C   UNL     1      46.285   6.328  11.352  0.00  0.00    +0.000 A 
ATOM     17  C   UNL     1      45.342   5.351  11.038  0.00  0.00    +0.000 A 
ATOM     18  C   UNL     1      45.086   4.306  11.933  0.00  0.00    +0.000 A 
ATOM     19  C   UNL     1      45.750   4.270  13.166  0.00  0.00    +0.000 A 
BRANCH  18  20
ATOM     20  C   UNL     1      44.128   3.248  11.521  0.00  0.00    +0.000 C 
ATOM     21  N   UNL     1      43.718   2.367  12.485  0.00  0.00    +0.000 N 
ATOM     22  O   UNL     1      43.765   3.126  10.360  0.00  0.00    +0.000 OA
ATOM     23  H   UNL     1      44.171   2.290  13.383  0.00  0.00    +0.000 HD
ATOM     24  H   UNL     1      43.194   1.565  12.155  0.00  0.00    +0.000 HD
ENDBRANCH  18  20
ENDBRANCH  13  14
ENDBRANCH   1  13
TORSDOF 7
ENDMDL
MODEL 9
REMARK VINA RESULT:    -5.750      3.235      4.880
REMARK INTER + INTRA:          -8.757
REMARK INTER:                  -8.156
REMARK INTRA:                  -0.601
REMARK UNBOUND:                -0.822
REMARK  Name = 
REMARK  7 active torsions:
REMARK  status: ('A' for Active; 'I' for Inactive)
REMARK    1  A    between atoms: N_1  and  C_2
REMARK    2  A    between atoms: C_2  and  C_3
REMARK    3  A    between atoms: C_7  and  S_8
REMARK    4  A    between atoms: S_8  and  C_9
REMARK    5  A    between atoms: C_9  and  C_10
REMARK    6  A    between atoms: C_10  and  C_11
REMARK    7  A    between atoms: C_15  and  C_16
REMARK                            x       y       z     vdW  Elec       q    Type
REMARK                         _______ _______ _______ _____ _____    ______ ____
ROOT
ATOM      1  C   UNL     1      45.942   7.682  12.913  0.00  0.00    +0.000 C 
ENDROOT
BRANCH   1   2
ATOM      2  S   UNL     1      47.467   6.721  12.613  0.00  0.00    +0.000 S 
BRANCH   2   7
ATOM      3  C   UNL     1      47.961   4.638  16.071  0.00  0.00    +0.000 A 
ATOM      4  C   UNL     1      48.690   5.523  16.876  0.00  0.00    +0.000 A 
ATOM      5  C   UNL     1      49.045   6.784  16.398  0.00  0.00    +0.000 A 
ATOM      6  C   UNL     1      48.688   7.170  15.104  0.00  0.00    +0.000 A 
ATOM      7  C   UNL     1      47.971   6.301  14.278  0.00  0.00    +0.000 A 
ATOM      8  C   UNL     1      47.595   5.046  14.778  0.00  0.00    +0.000 A 
BRANCH   3   9
ATOM      9  C   UNL     1      47.627   3.251  16.560  0.00  0.00    +0.000 C 
BRANCH   9  10
ATOM     10  N   UNL     1      46.545   3.256  17.539  0.00  0.00    +0.000 NA
ATOM     11  H   UNL     1      46.914   3.559  18.437  0.00  0.00    +0.000 HD
ATOM     12  H   UNL     1      46.219   2.298  17.670  0.00  0.00    +0.000 HD
ENDBRANCH   9  10
ENDBRANCH   3   9
ENDBRANCH   2   7
ENDBRANCH   1   2
BRANCH   1  13
ATOM     13  C   UNL     1      44.919   7.404  11.810  0.00  0.00    +0.000 C 
BRANCH  13  14
ATOM     14  C   UNL     1      44.571   5.935  11.761  0.00  0.00    +0.000 A 
ATOM     15  C   UNL     1      43.975   5.309  12.868  0.00  0.00    +0.000 A 
ATOM     16  C   UNL     1      43.614   3.963  12.810  0.00  0.00    +0.000 A 
ATOM     17  C   UNL     1      43.816   3.236  11.638  0.00  0.00    +0.000 A 
ATOM     18  C   UNL     1      44.381   3.853  10.516  0.00  0.00    +0.000 A 
ATOM     19  C   UNL     1      44.783   5.192  10.589  0.00  0.00    +0.000 A 
BRANCH  18  20
ATOM     20  C   UNL     1      44.507   3.057   9.267  0.00  0.00    +0.000 C 
ATOM     21  N   UNL     1      44.530   1.695   9.395  0.00  0.00    +0.000 N 
ATOM     22  O   UNL     1      44.647   3.591   8.177  0.00  0.00    +0.000 OA
ATOM     23  H   UNL     1      44.655   1.231  10.282  0.00  0.00    +0.000 HD
ATOM     24  H   UNL     1      44.774   1.178   8.559  0.00  0.00    +0.000 HD
ENDBRANCH  18  20
ENDBRANCH  13  14
ENDBRANCH   1  13
TORSDOF 7
ENDMDL
