MODEL 1
REMARK VINA RESULT:    -8.450      0.000      0.000
REMARK INTER + INTRA:         -12.910
REMARK INTER:                 -11.908
REMARK INTRA:                  -1.002
REMARK UNBOUND:                -1.002
REMARK  Name = 
REMARK  7 active torsions:
REMARK  status: ('A' for Active; 'I' for Inactive)
REMARK    1  A    between atoms: C_2  and  C_4
REMARK    2  A    between atoms: C_7  and  N_8
REMARK    3  A    between atoms: N_8  and  C_9
REMARK    4  A    between atoms: C_9  and  C_10
REMARK    5  A    between atoms: C_10  and  C_11
REMARK    6  A    between atoms: C_15  and  O_16
REMARK    7  A    between atoms: O_16  and  C_17
REMARK                            x       y       z     vdW  Elec       q    Type
REMARK                         _______ _______ _______ _____ _____    ______ ____
ROOT
ATOM      1  N   UNL     1      43.660   4.711  10.058  0.00  0.00    +0.000 N 
ATOM      2  H   UNL     1      42.916   5.044   9.449  0.00  0.00    +0.000 HD
ENDROOT
BRANCH   1   6
ATOM      3  C   UNL     1      46.419   2.415   7.827  0.00  0.00    +0.000 A 
ATOM      4  C   UNL     1      46.380   3.800   7.658  0.00  0.00    +0.000 A 
ATOM      5  C   UNL     1      45.485   4.571   8.407  0.00  0.00    +0.000 A 
ATOM      6  C   UNL     1      44.635   3.991   9.358  0.00  0.00    +0.000 A 
ATOM      7  C   UNL     1      44.676   2.599   9.509  0.00  0.00    +0.000 A 
ATOM      8  C   UNL     1      45.559   1.814   8.749  0.00  0.00    +0.000 A 
BRANCH   3  10
ATOM      9  N   UNL     1      48.473   2.123   6.547  0.00  0.00    +0.000 N 
ATOM     10  C   UNL     1      47.316   1.558   7.012  0.00  0.00    +0.000 C 
ATOM     11  O   UNL     1      47.053   0.384   6.781  0.00  0.00    +0.000 OA
ATOM     12  H   UNL     1      49.115   1.504   6.070  0.00  0.00    +0.000 HD
ATOM     13  H   UNL     1      48.838   2.989   6.915  0.00  0.00    +0.000 HD
ENDBRANCH   3  10
ENDBRANCH   1   6
BRANCH   1  14
ATOM     14  C   UNL     1      43.227   4.254  11.376  0.00  0.00    +0.000 C 
BRANCH  14  15
ATOM     15  C   UNL     1      43.421   5.344  12.433  0.00  0.00    +0.000 C 
BRANCH  15  16
ATOM     16  C   UNL     1      44.887   5.545  12.745  0.00  0.00    +0.000 A 
ATOM     17  C   UNL     1      45.569   6.668  12.259  0.00  0.00    +0.000 A 
ATOM     18  C   UNL     1      46.928   6.836  12.523  0.00  0.00    +0.000 A 
ATOM     19  C   UNL     1      47.628   5.882  13.266  0.00  0.00    +0.000 A 
ATOM     20  C   UNL     1      46.964   4.754  13.741  0.00  0.00    +0.000 A 
ATOM     21  C   UNL     1      45.598   4.590  13.485  0.00  0.00    +0.000 A 
BRANCH  20  22
ATOM     22  O   UNL     1      47.542   3.766  14.498  0.00  0.00    +0.000 OA
BRANCH  22  23
ATOM     23  C   UNL     1      47.386   3.796  15.934  0.00  0.00    +0.000 C 
ATOM     24  C   UNL     1      48.120   4.925  16.695  0.00  0.00    +0.000 C 
ATOM     25  C   UNL     1      48.679   3.882  17.672  0.00  0.00    +0.000 C 
ATOM     26  C   UNL     1      48.283   2.781  16.682  0.00  0.00    +0.000 C 
ENDBRANCH  22  23
ENDBRANCH  20  22
ENDBRANCH  15  16
ENDBRANCH  14  15
ENDBRANCH   1  14
TORSDOF 7
ENDMDL
MODEL 2
REMARK VINA RESULT:    -7.649      1.871      3.441
REMARK INTER + INTRA:         -11.782
REMARK INTER:                 -10.790
REMARK INTRA:                  -0.992
REMARK UNBOUND:                -1.002
REMARK  Name = 
REMARK  7 active torsions:
REMARK  status: ('A' for Active; 'I' for Inactive)
REMARK    1  A    between atoms: C_2  and  C_4
REMARK    2  A    between atoms: C_7  and  N_8
REMARK    3  A    between atoms: N_8  and  C_9
REMARK    4  A    between atoms: C_9  and  C_10
REMARK    5  A    between atoms: C_10  and  C_11
REMARK    6  A    between atoms: C_15  and  O_16
REMARK    7  A    between atoms: O_16  and  C_17
REMARK                            x       y       z     vdW  Elec       q    Type
REMARK                         _______ _______ _______ _____ _____    ______ ____
ROOT
ATOM      1  N   UNL     1      43.727   4.725  10.012  0.00  0.00    +0.000 N 
ATOM      2  H   UNL     1      43.029   5.147   9.403  0.00  0.00    +0.000 HD
ENDROOT
BRANCH   1   6
ATOM      3  C   UNL     1      46.512   2.530   7.713  0.00  0.00    +0.000 A 
ATOM      4  C   UNL     1      46.503   3.923   7.637  0.00  0.00    +0.000 A 
ATOM      5  C   UNL     1      45.600   4.660   8.411  0.00  0.00    +0.000 A 
ATOM      6  C   UNL     1      44.710   4.035   9.294  0.00  0.00    +0.000 A 
ATOM      7  C   UNL     1      44.721   2.635   9.351  0.00  0.00    +0.000 A 
ATOM      8  C   UNL     1      45.612   1.885   8.566  0.00  0.00    +0.000 A 
BRANCH   3  10
ATOM      9  N   UNL     1      48.442   2.361   6.234  0.00  0.00    +0.000 N 
ATOM     10  C   UNL     1      47.417   1.711   6.869  0.00  0.00    +0.000 C 
ATOM     11  O   UNL     1      47.277   0.500   6.758  0.00  0.00    +0.000 OA
ATOM     12  H   UNL     1      49.102   1.779   5.736  0.00  0.00    +0.000 HD
ATOM     13  H   UNL     1      48.734   3.291   6.493  0.00  0.00    +0.000 HD
ENDBRANCH   3  10
ENDBRANCH   1   6
BRANCH   1  14
ATOM     14  C   UNL     1      43.208   4.164  11.257  0.00  0.00    +0.000 C 
BRANCH  14  15
ATOM     15  C   UNL     1      43.305   5.174  12.404  0.00  0.00    +0.000 C 
BRANCH  15  16
ATOM     16  C   UNL     1      44.747   5.476  12.744  0.00  0.00    +0.000 A 
ATOM     17  C   UNL     1      45.595   4.461  13.204  0.00  0.00    +0.000 A 
ATOM     18  C   UNL     1      46.917   4.748  13.546  0.00  0.00    +0.000 A 
ATOM     19  C   UNL     1      47.407   6.052  13.442  0.00  0.00    +0.000 A 
ATOM     20  C   UNL     1      46.568   7.072  12.999  0.00  0.00    +0.000 A 
ATOM     21  C   UNL     1      45.246   6.782  12.648  0.00  0.00    +0.000 A 
BRANCH  20  22
ATOM     22  O   UNL     1      46.946   8.381  12.837  0.00  0.00    +0.000 OA
BRANCH  22  23
ATOM     23  C   UNL     1      48.169   8.679  12.127  0.00  0.00    +0.000 C 
ATOM     24  C   UNL     1      49.404   9.046  12.984  0.00  0.00    +0.000 C 
ATOM     25  C   UNL     1      49.638  10.272  12.092  0.00  0.00    +0.000 C 
ATOM     26  C   UNL     1      48.219  10.109  11.538  0.00  0.00    +0.000 C 
ENDBRANCH  22  23
ENDBRANCH  20  22
ENDBRANCH  15  16
ENDBRANCH  14  15
ENDBRANCH   1  14
TORSDOF 7
ENDMDL
MODEL 3
REMARK VINA RESULT:    -7.589      2.344      4.241
REMARK INTER + INTRA:         -11.697
REMARK INTER:                 -10.636
REMARK INTRA:                  -1.061
REMARK UNBOUND:                -1.002
REMARK  Name = 
REMARK  7 active torsions:
REMARK  status: ('A' for Active; 'I' for Inactive)
REMARK    1  A    between atoms: C_2  and  C_4
REMARK    2  A    between atoms: C_7  and  N_8
REMARK    3  A    between atoms: N_8  and  C_9
REMARK    4  A    between atoms: C_9  and  C_10
REMARK    5  A    between atoms: C_10  and  C_11
REMARK    6  A    between atoms: C_15  and  O_16
REMARK    7  A    between atoms: O_16  and  C_17
REMARK                            x       y       z     vdW  Elec       q    Type
REMARK                         _______ _______ _______ _____ _____    ______ ____
ROOT
ATOM      1  N   UNL     1      43.620   3.685  10.596  0.00  0.00    +0.000 N 
ATOM      2  H   UNL     1      42.686   3.701  10.192  0.00  0.00    +0.000 HD
ENDROOT
BRANCH   1   6
ATOM      3  C   UNL     1      46.420   2.707   7.585  0.00  0.00    +0.000 A 
ATOM      4  C   UNL     1      46.111   4.046   7.829  0.00  0.00    +0.000 A 
ATOM      5  C   UNL     1      45.202   4.381   8.839  0.00  0.00    +0.000 A 
ATOM      6  C   UNL     1      44.605   3.401   9.643  0.00  0.00    +0.000 A 
ATOM      7  C   UNL     1      44.914   2.061   9.379  0.00  0.00    +0.000 A 
ATOM      8  C   UNL     1      45.813   1.713   8.357  0.00  0.00    +0.000 A 
BRANCH   3  10
ATOM      9  N   UNL     1      47.366   3.104   5.374  0.00  0.00    +0.000 N 
ATOM     10  C   UNL     1      47.337   2.308   6.489  0.00  0.00    +0.000 C 
ATOM     11  O   UNL     1      48.062   1.326   6.577  0.00  0.00    +0.000 OA
ATOM     12  H   UNL     1      48.059   2.872   4.675  0.00  0.00    +0.000 HD
ATOM     13  H   UNL     1      46.981   4.036   5.366  0.00  0.00    +0.000 HD
ENDBRANCH   3  10
ENDBRANCH   1   6
BRANCH   1  14
ATOM     14  C   UNL     1      43.710   3.097  11.930  0.00  0.00    +0.000 C 
BRANCH  14  15
ATOM     15  C   UNL     1      43.603   4.169  13.018  0.00  0.00    +0.000 C 
BRANCH  15  16
ATOM     16  C   UNL     1      44.764   5.136  12.945  0.00  0.00    +0.000 A 
ATOM     17  C   UNL     1      46.082   4.664  12.952  0.00  0.00    +0.000 A 
ATOM     18  C   UNL     1      47.152   5.560  12.915  0.00  0.00    +0.000 A 
ATOM     19  C   UNL     1      46.920   6.937  12.880  0.00  0.00    +0.000 A 
ATOM     20  C   UNL     1      45.613   7.418  12.888  0.00  0.00    +0.000 A 
ATOM     21  C   UNL     1      44.541   6.519  12.916  0.00  0.00    +0.000 A 
BRANCH  20  22
ATOM     22  O   UNL     1      45.267   8.744  12.834  0.00  0.00    +0.000 OA
BRANCH  22  23
ATOM     23  C   UNL     1      45.329   9.438  11.568  0.00  0.00    +0.000 C 
ATOM     24  C   UNL     1      45.518  10.972  11.619  0.00  0.00    +0.000 C 
ATOM     25  C   UNL     1      44.353  11.133  10.634  0.00  0.00    +0.000 C 
ATOM     26  C   UNL     1      43.945   9.683  10.919  0.00  0.00    +0.000 C 
ENDBRANCH  22  23
ENDBRANCH  20  22
ENDBRANCH  15  16
ENDBRANCH  14  15
ENDBRANCH   1  14
TORSDOF 7
ENDMDL
MODEL 4
REMARK VINA RESULT:    -7.403      1.455      2.043
REMARK INTER + INTRA:         -11.435
REMARK INTER:                 -10.593
REMARK INTRA:                  -0.843
REMARK UNBOUND:                -1.002
REMARK  Name = 
REMARK  7 active torsions:
REMARK  status: ('A' for Active; 'I' for Inactive)
REMARK    1  A    between atoms: C_2  and  C_4
REMARK    2  A    between atoms: C_7  and  N_8
REMARK    3  A    between atoms: N_8  and  C_9
REMARK    4  A    between atoms: C_9  and  C_10
REMARK    5  A    between atoms: C_10  and  C_11
REMARK    6  A    between atoms: C_15  and  O_16
REMARK    7  A    between atoms: O_16  and  C_17
REMARK                            x       y       z     vdW  Elec       q    Type
REMARK                         _______ _______ _______ _____ _____    ______ ____
ROOT
ATOM      1  N   UNL     1      43.596   3.857  10.542  0.00  0.00    +0.000 N 
ATOM      2  H   UNL     1      42.630   3.894  10.221  0.00  0.00    +0.000 HD
ENDROOT
BRANCH   1   6
ATOM      3  C   UNL     1      46.399   2.494   7.687  0.00  0.00    +0.000 A 
ATOM      4  C   UNL     1      45.715   1.569   8.476  0.00  0.00    +0.000 A 
ATOM      5  C   UNL     1      44.769   2.008   9.409  0.00  0.00    +0.000 A 
ATOM      6  C   UNL     1      44.462   3.367   9.557  0.00  0.00    +0.000 A 
ATOM      7  C   UNL     1      45.164   4.287   8.767  0.00  0.00    +0.000 A 
ATOM      8  C   UNL     1      46.128   3.857   7.840  0.00  0.00    +0.000 A 
BRANCH   3  10
ATOM      9  N   UNL     1      47.991   3.039   5.924  0.00  0.00    +0.000 N 
ATOM     10  C   UNL     1      47.447   2.072   6.726  0.00  0.00    +0.000 C 
ATOM     11  O   UNL     1      47.837   0.913   6.663  0.00  0.00    +0.000 OA
ATOM     12  H   UNL     1      48.765   2.755   5.338  0.00  0.00    +0.000 HD
ATOM     13  H   UNL     1      47.880   4.024   6.114  0.00  0.00    +0.000 HD
ENDBRANCH   3  10
ENDBRANCH   1   6
BRANCH   1  14
ATOM     14  C   UNL     1      43.774   3.450  11.933  0.00  0.00    +0.000 C 
BRANCH  14  15
ATOM     15  C   UNL     1      43.581   4.632  12.886  0.00  0.00    +0.000 C 
BRANCH  15  16
ATOM     16  C   UNL     1      44.766   5.570  12.837  0.00  0.00    +0.000 A 
ATOM     17  C   UNL     1      44.741   6.704  12.015  0.00  0.00    +0.000 A 
ATOM     18  C   UNL     1      45.848   7.551  11.949  0.00  0.00    +0.000 A 
ATOM     19  C   UNL     1      46.997   7.273  12.693  0.00  0.00    +0.000 A 
ATOM     20  C   UNL     1      47.039   6.140  13.502  0.00  0.00    +0.000 A 
ATOM     21  C   UNL     1      45.926   5.296  13.576  0.00  0.00    +0.000 A 
BRANCH  20  22
ATOM     22  O   UNL     1      48.102   5.781  14.291  0.00  0.00    +0.000 OA
BRANCH  22  23
ATOM     23  C   UNL     1      48.712   6.773  15.146  0.00  0.00    +0.000 C 
ATOM     24  C   UNL     1      50.083   7.334  14.701  0.00  0.00    +0.000 C 
ATOM     25  C   UNL     1      50.628   7.078  16.112  0.00  0.00    +0.000 C 
ATOM     26  C   UNL     1      49.418   6.180  16.389  0.00  0.00    +0.000 C 
ENDBRANCH  22  23
ENDBRANCH  20  22
ENDBRANCH  15  16
ENDBRANCH  14  15
ENDBRANCH   1  14
TORSDOF 7
ENDMDL
MODEL 5
REMARK VINA RESULT:    -6.829      2.843      7.431
REMARK INTER + INTRA:         -10.626
REMARK INTER:                  -9.696
REMARK INTRA:                  -0.930
REMARK UNBOUND:                -1.002
REMARK  Name = 
REMARK  7 active torsions:
REMARK  status: ('A' for Active; 'I' for Inactive)
REMARK    1  A    between atoms: C_2  and  C_4
REMARK    2  A    between atoms: C_7  and  N_8
REMARK    3  A    between atoms: N_8  and  C_9
REMARK    4  A    between atoms: C_9  and  C_10
REMARK    5  A    between atoms: C_10  and  C_11
REMARK    6  A    between atoms: C_15  and  O_16
REMARK    7  A    between atoms: O_16  and  C_17
REMARK                            x       y       z     vdW  Elec       q    Type
REMARK                         _______ _______ _______ _____ _____    ______ ____
ROOT
ATOM      1  N   UNL     1      48.155   7.168  13.062  0.00  0.00    +0.000 N 
ATOM      2  H   UNL     1      49.121   7.464  12.939  0.00  0.00    +0.000 HD
ENDROOT
BRANCH   1   6
ATOM      3  C   UNL     1      47.607   4.548  16.333  0.00  0.00    +0.000 A 
ATOM      4  C   UNL     1      47.020   4.246  15.104  0.00  0.00    +0.000 A 
ATOM      5  C   UNL     1      47.213   5.096  14.009  0.00  0.00    +0.000 A 
ATOM      6  C   UNL     1      48.014   6.242  14.102  0.00  0.00    +0.000 A 
ATOM      7  C   UNL     1      48.588   6.539  15.345  0.00  0.00    +0.000 A 
ATOM      8  C   UNL     1      48.386   5.702  16.455  0.00  0.00    +0.000 A 
BRANCH   3  10
ATOM      9  N   UNL     1      48.063   4.033  18.671  0.00  0.00    +0.000 N 
ATOM     10  C   UNL     1      47.382   3.702  17.531  0.00  0.00    +0.000 C 
ATOM     11  O   UNL     1      46.600   2.759  17.519  0.00  0.00    +0.000 OA
ATOM     12  H   UNL     1      47.833   3.504  19.503  0.00  0.00    +0.000 HD
ATOM     13  H   UNL     1      48.513   4.928  18.792  0.00  0.00    +0.000 HD
ENDBRANCH   3  10
ENDBRANCH   1   6
BRANCH   1  14
ATOM     14  C   UNL     1      47.396   6.993  11.827  0.00  0.00    +0.000 C 
BRANCH  14  15
ATOM     15  C   UNL     1      45.946   7.456  11.995  0.00  0.00    +0.000 C 
BRANCH  15  16
ATOM     16  C   UNL     1      44.979   6.332  11.702  0.00  0.00    +0.000 A 
ATOM     17  C   UNL     1      43.982   5.994  12.626  0.00  0.00    +0.000 A 
ATOM     18  C   UNL     1      43.109   4.937  12.367  0.00  0.00    +0.000 A 
ATOM     19  C   UNL     1      43.225   4.197  11.187  0.00  0.00    +0.000 A 
ATOM     20  C   UNL     1      44.222   4.514  10.268  0.00  0.00    +0.000 A 
ATOM     21  C   UNL     1      45.091   5.580  10.524  0.00  0.00    +0.000 A 
BRANCH  20  22
ATOM     22  O   UNL     1      44.415   3.874   9.071  0.00  0.00    +0.000 OA
BRANCH  22  23
ATOM     23  C   UNL     1      45.729   3.370   8.744  0.00  0.00    +0.000 C 
ATOM     24  C   UNL     1      46.179   3.492   7.269  0.00  0.00    +0.000 C 
ATOM     25  C   UNL     1      46.597   2.015   7.291  0.00  0.00    +0.000 C 
ATOM     26  C   UNL     1      45.787   1.832   8.579  0.00  0.00    +0.000 C 
ENDBRANCH  22  23
ENDBRANCH  20  22
ENDBRANCH  15  16
ENDBRANCH  14  15
ENDBRANCH   1  14
TORSDOF 7
ENDMDL
MODEL 6
REMARK VINA RESULT:    -6.682      2.953      3.864
REMARK INTER + INTRA:         -10.419
REMARK INTER:                  -9.576
REMARK INTRA:                  -0.843
REMARK UNBOUND:                -1.002
REMARK  Name = 
REMARK  7 active torsions:
REMARK  status: ('A' for Active; 'I' for Inactive)
REMARK    1  A    between atoms: C_2  and  C_4
REMARK    2  A    between atoms: C_7  and  N_8
REMARK    3  A    between atoms: N_8  and  C_9
REMARK    4  A    between atoms: C_9  and  C_10
REMARK    5  A    between atoms: C_10  and  C_11
REMARK    6  A    between atoms: C_15  and  O_16
REMARK    7  A    between atoms: O_16  and  C_17
REMARK                            x       y       z     vdW  Elec       q    Type
REMARK                         _______ _______ _______ _____ _____    ______ ____
ROOT
ATOM      1  N   UNL     1      44.088   4.519  10.580  0.00  0.00    +0.000 N 
ATOM      2  H   UNL     1      43.250   4.026  10.879  0.00  0.00    +0.000 HD
ENDROOT
BRANCH   1   6
ATOM      3  C   UNL     1      46.406   2.514   7.671  0.00  0.00    +0.000 A 
ATOM      4  C   UNL     1      45.647   1.772   8.577  0.00  0.00    +0.000 A 
ATOM      5  C   UNL     1      44.859   2.427   9.530  0.00  0.00    +0.000 A 
ATOM      6  C   UNL     1      44.785   3.825   9.585  0.00  0.00    +0.000 A 
ATOM      7  C   UNL     1      45.562   4.557   8.677  0.00  0.00    +0.000 A 
ATOM      8  C   UNL     1      46.369   3.909   7.728  0.00  0.00    +0.000 A 
BRANCH   3  10
ATOM      9  N   UNL     1      48.135   2.662   5.959  0.00  0.00    +0.000 N 
ATOM     10  C   UNL     1      47.295   1.856   6.681  0.00  0.00    +0.000 C 
ATOM     11  O   UNL     1      47.305   0.641   6.527  0.00  0.00    +0.000 OA
ATOM     12  H   UNL     1      48.798   2.193   5.355  0.00  0.00    +0.000 HD
ATOM     13  H   UNL     1      48.333   3.614   6.227  0.00  0.00    +0.000 HD
ENDBRANCH   3  10
ENDBRANCH   1   6
BRANCH   1  14
ATOM     14  C   UNL     1      44.825   5.196  11.645  0.00  0.00    +0.000 C 
BRANCH  14  15
ATOM     15  C   UNL     1      44.337   6.636  11.829  0.00  0.00    +0.000 C 
BRANCH  15  16
ATOM     16  C   UNL     1      45.500   7.593  11.952  0.00  0.00    +0.000 A 
ATOM     17  C   UNL     1      45.276   8.962  12.144  0.00  0.00    +0.000 A 
ATOM     18  C   UNL     1      46.351   9.847  12.228  0.00  0.00    +0.000 A 
ATOM     19  C   UNL     1      47.663   9.380  12.112  0.00  0.00    +0.000 A 
ATOM     20  C   UNL     1      47.897   8.023  11.907  0.00  0.00    +0.000 A 
ATOM     21  C   UNL     1      46.819   7.134  11.833  0.00  0.00    +0.000 A 
BRANCH  20  22
ATOM     22  O   UNL     1      49.139   7.451  11.802  0.00  0.00    +0.000 OA
BRANCH  22  23
ATOM     23  C   UNL     1      50.271   8.280  11.458  0.00  0.00    +0.000 C 
ATOM     24  C   UNL     1      51.421   7.605  10.675  0.00  0.00    +0.000 C 
ATOM     25  C   UNL     1      52.427   8.196  11.672  0.00  0.00    +0.000 C 
ATOM     26  C   UNL     1      51.265   8.498  12.625  0.00  0.00    +0.000 C 
ENDBRANCH  22  23
ENDBRANCH  20  22
ENDBRANCH  15  16
ENDBRANCH  14  15
ENDBRANCH   1  14
TORSDOF 7
ENDMDL
MODEL 7
REMARK VINA RESULT:    -6.536      3.542      8.318
REMARK INTER + INTRA:         -10.213
REMARK INTER:                  -9.523
REMARK INTRA:                  -0.690
REMARK UNBOUND:                -1.002
REMARK  Name = 
REMARK  7 active torsions:
REMARK  status: ('A' for Active; 'I' for Inactive)
REMARK    1  A    between atoms: C_2  and  C_4
REMARK    2  A    between atoms: C_7  and  N_8
REMARK    3  A    between atoms: N_8  and  C_9
REMARK    4  A    between atoms: C_9  and  C_10
REMARK    5  A    between atoms: C_10  and  C_11
REMARK    6  A    between atoms: C_15  and  O_16
REMARK    7  A    between atoms: O_16  and  C_17
REMARK                            x       y       z     vdW  Elec       q    Type
REMARK                         _______ _______ _______ _____ _____    ______ ____
ROOT
ATOM      1  N   UNL     1      46.670   4.117  15.494  0.00  0.00    +0.000 N 
ATOM      2  H   UNL     1      45.879   4.654  15.843  0.00  0.00    +0.000 HD
ENDROOT
BRANCH   1   6
ATOM      3  C   UNL     1      50.079   4.057  17.991  0.00  0.00    +0.000 A 
ATOM      4  C   UNL     1      49.497   5.279  17.650  0.00  0.00    +0.000 A 
ATOM      5  C   UNL     1      48.355   5.308  16.842  0.00  0.00    +0.000 A 
ATOM      6  C   UNL     1      47.752   4.130  16.381  0.00  0.00    +0.000 A 
ATOM      7  C   UNL     1      48.354   2.912  16.720  0.00  0.00    +0.000 A 
ATOM      8  C   UNL     1      49.510   2.872  17.517  0.00  0.00    +0.000 A 
BRANCH   3  10
ATOM      9  N   UNL     1      51.248   4.413  20.100  0.00  0.00    +0.000 N 
ATOM     10  C   UNL     1      51.321   3.988  18.800  0.00  0.00    +0.000 C 
ATOM     11  O   UNL     1      52.367   3.545  18.343  0.00  0.00    +0.000 OA
ATOM     12  H   UNL     1      52.076   4.276  20.665  0.00  0.00    +0.000 HD
ATOM     13  H   UNL     1      50.368   4.545  20.577  0.00  0.00    +0.000 HD
ENDBRANCH   3  10
ENDBRANCH   1   6
BRANCH   1  14
ATOM     14  C   UNL     1      46.907   4.222  14.056  0.00  0.00    +0.000 C 
BRANCH  14  15
ATOM     15  C   UNL     1      46.328   5.522  13.492  0.00  0.00    +0.000 C 
BRANCH  15  16
ATOM     16  C   UNL     1      45.340   5.240  12.383  0.00  0.00    +0.000 A 
ATOM     17  C   UNL     1      43.986   5.031  12.674  0.00  0.00    +0.000 A 
ATOM     18  C   UNL     1      43.081   4.742  11.652  0.00  0.00    +0.000 A 
ATOM     19  C   UNL     1      43.516   4.649  10.328  0.00  0.00    +0.000 A 
ATOM     20  C   UNL     1      44.863   4.840  10.028  0.00  0.00    +0.000 A 
ATOM     21  C   UNL     1      45.768   5.140  11.052  0.00  0.00    +0.000 A 
BRANCH  20  22
ATOM     22  O   UNL     1      45.397   4.796   8.766  0.00  0.00    +0.000 OA
BRANCH  22  23
ATOM     23  C   UNL     1      45.322   3.566   8.011  0.00  0.00    +0.000 C 
ATOM     24  C   UNL     1      45.668   2.260   8.764  0.00  0.00    +0.000 C 
ATOM     25  C   UNL     1      46.604   1.863   7.614  0.00  0.00    +0.000 C 
ATOM     26  C   UNL     1      46.553   3.309   7.108  0.00  0.00    +0.000 C 
ENDBRANCH  22  23
ENDBRANCH  20  22
ENDBRANCH  15  16
ENDBRANCH  14  15
ENDBRANCH   1  14
TORSDOF 7
ENDMDL
MODEL 8
REMARK VINA RESULT:    -6.418      3.728      7.491
REMARK INTER + INTRA:         -10.046
REMARK INTER:                  -8.841
REMARK INTRA:                  -1.205
REMARK UNBOUND:                -1.002
REMARK  Name = 
REMARK  7 active torsions:
REMARK  status: ('A' for Active; 'I' for Inactive)
REMARK    1  A    between atoms: C_2  and  C_4
REMARK    2  A    between atoms: C_7  and  N_8
REMARK    3  A    between atoms: N_8  and  C_9
REMARK    4  A    between atoms: C_9  and  C_10
REMARK    5  A    between atoms: C_10  and  C_11
REMARK    6  A    between atoms: C_15  and  O_16
REMARK    7  A    between atoms: O_16  and  C_17
REMARK                            x       y       z     vdW  Elec       q    Type
REMARK                         _______ _______ _______ _____ _____    ______ ____
ROOT
ATOM      1  N   UNL     1      47.333   7.399  13.993  0.00  0.00    +0.000 N 
ATOM      2  H   UNL     1      46.945   7.363  14.933  0.00  0.00    +0.000 HD
ENDROOT
BRANCH   1   6
ATOM      3  C   UNL     1      45.993  10.601  11.582  0.00  0.00    +0.000 A 
ATOM      4  C   UNL     1      45.066   9.701  12.109  0.00  0.00    +0.000 A 
ATOM      5  C   UNL     1      45.497   8.650  12.926  0.00  0.00    +0.000 A 
ATOM      6  C   UNL     1      46.848   8.488  13.260  0.00  0.00    +0.000 A 
ATOM      7  C   UNL     1      47.770   9.391  12.715  0.00  0.00    +0.000 A 
ATOM      8  C   UNL     1      47.349  10.439  11.880  0.00  0.00    +0.000 A 
BRANCH   3  10
ATOM      9  N   UNL     1      46.443  12.749  10.523  0.00  0.00    +0.000 N 
ATOM     10  C   UNL     1      45.581  11.695  10.668  0.00  0.00    +0.000 C 
ATOM     11  O   UNL     1      44.529  11.654  10.044  0.00  0.00    +0.000 OA
ATOM     12  H   UNL     1      46.192  13.443   9.831  0.00  0.00    +0.000 HD
ATOM     13  H   UNL     1      47.407  12.704  10.817  0.00  0.00    +0.000 HD
ENDBRANCH   3  10
ENDBRANCH   1   6
BRANCH   1  14
ATOM     14  C   UNL     1      47.504   6.103  13.341  0.00  0.00    +0.000 C 
BRANCH  14  15
ATOM     15  C   UNL     1      46.377   5.138  13.721  0.00  0.00    +0.000 C 
BRANCH  15  16
ATOM     16  C   UNL     1      45.368   5.012  12.602  0.00  0.00    +0.000 A 
ATOM     17  C   UNL     1      44.010   4.828  12.889  0.00  0.00    +0.000 A 
ATOM     18  C   UNL     1      43.085   4.682  11.854  0.00  0.00    +0.000 A 
ATOM     19  C   UNL     1      43.503   4.708  10.522  0.00  0.00    +0.000 A 
ATOM     20  C   UNL     1      44.854   4.875  10.225  0.00  0.00    +0.000 A 
ATOM     21  C   UNL     1      45.780   5.031  11.262  0.00  0.00    +0.000 A 
BRANCH  20  22
ATOM     22  O   UNL     1      45.374   4.939   8.958  0.00  0.00    +0.000 OA
BRANCH  22  23
ATOM     23  C   UNL     1      45.292   3.777   8.103  0.00  0.00    +0.000 C 
ATOM     24  C   UNL     1      45.541   2.401   8.765  0.00  0.00    +0.000 C 
ATOM     25  C   UNL     1      46.524   2.055   7.638  0.00  0.00    +0.000 C 
ATOM     26  C   UNL     1      46.561   3.537   7.249  0.00  0.00    +0.000 C 
ENDBRANCH  22  23
ENDBRANCH  20  22
ENDBRANCH  15  16
ENDBRANCH  14  15
ENDBRANCH   1  14
TORSDOF 7
ENDMDL
MODEL 9
REMARK VINA RESULT:    -5.947      3.681      7.334
REMARK INTER + INTRA:          -9.382
REMARK INTER:                  -8.610
REMARK INTRA:                  -0.772
REMARK UNBOUND:                -1.002
REMARK  Name = 
REMARK  7 active torsions:
REMARK  status: ('A' for Active; 'I' for Inactive)
REMARK    1  A    between atoms: C_2  and  C_4
REMARK    2  A    between atoms: C_7  and  N_8
REMARK    3  A    between atoms: N_8  and  C_9
REMARK    4  A    between atoms: C_9  and  C_10
REMARK    5  A    between atoms: C_10  and  C_11
REMARK    6  A    between atoms: C_15  and  O_16
REMARK    7  A    between atoms: O_16  and  C_17
REMARK                            x       y       z     vdW  Elec       q    Type
REMARK                         _______ _______ _______ _____ _____    ______ ____
ROOT
ATOM      1  N   UNL     1      47.221   7.859  13.803  0.00  0.00    +0.000 N 
ATOM      2  H   UNL     1      46.982   8.684  14.348  0.00  0.00    +0.000 HD
ENDROOT
BRANCH   1   6
ATOM      3  C   UNL     1      51.078   8.232  12.115  0.00  0.00    +0.000 A 
ATOM      4  C   UNL     1      50.899   8.456  13.481  0.00  0.00    +0.000 A 
ATOM      5  C   UNL     1      49.630   8.314  14.054  0.00  0.00    +0.000 A 
ATOM      6  C   UNL     1      48.522   7.919  13.292  0.00  0.00    +0.000 A 
ATOM      7  C   UNL     1      48.713   7.710  11.920  0.00  0.00    +0.000 A 
ATOM      8  C   UNL     1      49.979   7.866  11.333  0.00  0.00    +0.000 A 
BRANCH   3  10
ATOM      9  N   UNL     1      53.011   7.315  10.947  0.00  0.00    +0.000 N 
ATOM     10  C   UNL     1      52.396   8.425  11.462  0.00  0.00    +0.000 C 
ATOM     11  O   UNL     1      52.910   9.532  11.358  0.00  0.00    +0.000 OA
ATOM     12  H   UNL     1      53.863   7.474  10.427  0.00  0.00    +0.000 HD
ATOM     13  H   UNL     1      52.519   6.448  10.793  0.00  0.00    +0.000 HD
ENDBRANCH   3  10
ENDBRANCH   1   6
BRANCH   1  14
ATOM     14  C   UNL     1      46.141   7.325  12.977  0.00  0.00    +0.000 C 
BRANCH  14  15
ATOM     15  C   UNL     1      45.903   5.840  13.265  0.00  0.00    +0.000 C 
BRANCH  15  16
ATOM     16  C   UNL     1      45.131   5.185  12.143  0.00  0.00    +0.000 A 
ATOM     17  C   UNL     1      43.930   4.513  12.404  0.00  0.00    +0.000 A 
ATOM     18  C   UNL     1      43.236   3.883  11.371  0.00  0.00    +0.000 A 
ATOM     19  C   UNL     1      43.733   3.908  10.066  0.00  0.00    +0.000 A 
ATOM     20  C   UNL     1      44.934   4.560   9.796  0.00  0.00    +0.000 A 
ATOM     21  C   UNL     1      45.626   5.200  10.831  0.00  0.00    +0.000 A 
BRANCH  20  22
ATOM     22  O   UNL     1      45.504   4.667   8.554  0.00  0.00    +0.000 OA
BRANCH  22  23
ATOM     23  C   UNL     1      45.527   3.512   7.686  0.00  0.00    +0.000 C 
ATOM     24  C   UNL     1      46.085   2.199   8.283  0.00  0.00    +0.000 C 
ATOM     25  C   UNL     1      46.977   2.033   7.046  0.00  0.00    +0.000 C 
ATOM     26  C   UNL     1      46.712   3.500   6.690  0.00  0.00    +0.000 C 
ENDBRANCH  22  23
ENDBRANCH  20  22
ENDBRANCH  15  16
ENDBRANCH  14  15
ENDBRANCH   1  14
TORSDOF 7
ENDMDL
