MODEL 1
REMARK VINA RESULT:    -8.002      0.000      0.000
REMARK INTER + INTRA:         -10.833
REMARK INTER:                 -10.341
REMARK INTRA:                  -0.492
REMARK UNBOUND:                -0.492
REMARK  Name = 
REMARK  7 active torsions:
REMARK  status: ('A' for Active; 'I' for Inactive)
REMARK    1  A    between atoms: C_1  and  N_2
REMARK    2  A    between atoms: N_2  and  C_3
REMARK    3  A    between atoms: C_3  and  C_4
REMARK    4  A    between atoms: C_8  and  C_9
REMARK    5  A    between atoms: C_9  and  N_10
REMARK    6  A    between atoms: N_10  and  C_11
REMARK    7  A    between atoms: C_19  and  C_21
REMARK                            x       y       z     vdW  Elec       q    Type
REMARK                         _______ _______ _______ _____ _____    ______ ____
ROOT
ATOM      1  C   UNL     1      48.248   5.898  15.321  0.00  0.00    +0.000 C 
ENDROOT
BRANCH   1   2
ATOM      2  C   UNL     1      48.088   6.501  13.946  0.00  0.00    +0.000 A 
ATOM      3  C   UNL     1      49.197   7.063  13.303  0.00  0.00    +0.000 A 
ATOM      4  C   UNL     1      49.055   7.666  12.057  0.00  0.00    +0.000 A 
ATOM      5  C   UNL     1      47.818   7.652  11.410  0.00  0.00    +0.000 A 
ATOM      6  C   UNL     1      46.703   7.029  11.995  0.00  0.00    +0.000 A 
ATOM      7  C   UNL     1      46.837   6.502  13.289  0.00  0.00    +0.000 A 
BRANCH   6   8
ATOM      8  C   UNL     1      45.453   6.785  11.157  0.00  0.00    +0.000 C 
BRANCH   8   9
ATOM      9  N   UNL     1      44.794   5.476  11.287  0.00  0.00    +0.000 N 
ATOM     10  C   UNL     1      43.455   5.403  11.859  0.00  0.00    +0.000 C 
ATOM     11  C   UNL     1      45.009   4.664  10.146  0.00  0.00    +0.000 A 
ATOM     12  C   UNL     1      44.436   3.391  10.034  0.00  0.00    +0.000 A 
ATOM     13  C   UNL     1      44.607   2.634   8.871  0.00  0.00    +0.000 A 
ATOM     14  C   UNL     1      45.381   3.136   7.840  0.00  0.00    +0.000 A 
ATOM     15  C   UNL     1      45.960   4.374   8.029  0.00  0.00    +0.000 A 
ATOM     16  N   UNL     1      45.787   5.130   9.141  0.00  0.00    +0.000 NA
ENDBRANCH   8   9
ENDBRANCH   6   8
ENDBRANCH   1   2
BRANCH   1  18
ATOM     17  C   UNL     1      46.911   3.873  14.568  0.00  0.00    +0.000 C 
ATOM     18  N   UNL     1      47.514   4.666  15.634  0.00  0.00    +0.000 N 
ATOM     19  C   UNL     1      47.272   4.200  16.946  0.00  0.00    +0.000 C 
ATOM     20  O   UNL     1      46.626   3.171  17.137  0.00  0.00    +0.000 OA
BRANCH  19  21
ATOM     21  C   UNL     1      47.764   4.968  18.096  0.00  0.00    +0.000 A 
ATOM     22  C   UNL     1      46.977   5.781  18.895  0.00  0.00    +0.000 A 
ATOM     23  S   UNL     1      47.827   6.506  20.187  0.00  0.00    +0.000 S 
ATOM     24  C   UNL     1      49.236   5.630  19.819  0.00  0.00    +0.000 A 
ATOM     25  N   UNL     1      50.334   5.707  20.616  0.00  0.00    +0.000 NA
ATOM     26  C   UNL     1      51.301   4.928  20.259  0.00  0.00    +0.000 A 
ATOM     27  N   UNL     1      51.281   4.110  19.158  0.00  0.00    +0.000 N 
ATOM     28  C   UNL     1      50.246   4.104  18.245  0.00  0.00    +0.000 A 
ATOM     29  O   UNL     1      50.365   3.543  17.163  0.00  0.00    +0.000 OA
ATOM     30  C   UNL     1      49.088   4.873  18.673  0.00  0.00    +0.000 A 
ATOM     31  H   UNL     1      52.095   3.574  18.901  0.00  0.00    +0.000 HD
ENDBRANCH  19  21
ENDBRANCH   1  18
TORSDOF 5
ENDMDL
MODEL 2
REMARK VINA RESULT:    -7.721      3.381      9.069
REMARK INTER + INTRA:         -10.470
REMARK INTER:                  -9.259
REMARK INTRA:                  -1.211
REMARK UNBOUND:                -0.492
REMARK  Name = 
REMARK  7 active torsions:
REMARK  status: ('A' for Active; 'I' for Inactive)
REMARK    1  A    between atoms: C_1  and  N_2
REMARK    2  A    between atoms: N_2  and  C_3
REMARK    3  A    between atoms: C_3  and  C_4
REMARK    4  A    between atoms: C_8  and  C_9
REMARK    5  A    between atoms: C_9  and  N_10
REMARK    6  A    between atoms: N_10  and  C_11
REMARK    7  A    between atoms: C_19  and  C_21
REMARK                            x       y       z     vdW  Elec       q    Type
REMARK                         _______ _______ _______ _____ _____    ______ ____
ROOT
ATOM      1  C   UNL     1      47.308   6.157  12.294  0.00  0.00    +0.000 C 
ENDROOT
BRANCH   1   2
ATOM      2  C   UNL     1      47.475   5.638  13.704  0.00  0.00    +0.000 A 
ATOM      3  C   UNL     1      47.007   4.360  14.030  0.00  0.00    +0.000 A 
ATOM      4  C   UNL     1      47.109   3.888  15.335  0.00  0.00    +0.000 A 
ATOM      5  C   UNL     1      47.742   4.661  16.311  0.00  0.00    +0.000 A 
ATOM      6  C   UNL     1      48.289   5.916  15.998  0.00  0.00    +0.000 A 
ATOM      7  C   UNL     1      48.103   6.418  14.700  0.00  0.00    +0.000 A 
BRANCH   6   8
ATOM      8  C   UNL     1      49.209   6.606  16.998  0.00  0.00    +0.000 C 
BRANCH   8   9
ATOM      9  N   UNL     1      49.015   6.297  18.424  0.00  0.00    +0.000 N 
ATOM     10  C   UNL     1      50.094   5.663  19.171  0.00  0.00    +0.000 C 
ATOM     11  C   UNL     1      48.346   7.346  19.102  0.00  0.00    +0.000 A 
ATOM     12  C   UNL     1      48.094   7.285  20.477  0.00  0.00    +0.000 A 
ATOM     13  C   UNL     1      47.490   8.360  21.138  0.00  0.00    +0.000 A 
ATOM     14  C   UNL     1      47.107   9.475  20.415  0.00  0.00    +0.000 A 
ATOM     15  C   UNL     1      47.336   9.455  19.054  0.00  0.00    +0.000 A 
ATOM     16  N   UNL     1      47.939   8.431  18.402  0.00  0.00    +0.000 NA
ENDBRANCH   8   9
ENDBRANCH   6   8
ENDBRANCH   1   2
BRANCH   1  18
ATOM     17  C   UNL     1      46.411   8.532  12.202  0.00  0.00    +0.000 C 
ATOM     18  N   UNL     1      46.215   7.098  12.022  0.00  0.00    +0.000 N 
ATOM     19  C   UNL     1      44.909   6.708  11.651  0.00  0.00    +0.000 C 
ATOM     20  O   UNL     1      44.032   7.550  11.462  0.00  0.00    +0.000 OA
BRANCH  19  21
ATOM     21  C   UNL     1      44.581   5.283  11.522  0.00  0.00    +0.000 A 
ATOM     22  C   UNL     1      43.824   4.563  12.432  0.00  0.00    +0.000 A 
ATOM     23  S   UNL     1      43.572   2.935  11.983  0.00  0.00    +0.000 S 
ATOM     24  C   UNL     1      44.328   3.179  10.480  0.00  0.00    +0.000 A 
ATOM     25  N   UNL     1      44.362   2.191   9.548  0.00  0.00    +0.000 NA
ATOM     26  C   UNL     1      44.896   2.543   8.426  0.00  0.00    +0.000 A 
ATOM     27  N   UNL     1      45.432   3.780   8.168  0.00  0.00    +0.000 N 
ATOM     28  C   UNL     1      45.544   4.765   9.128  0.00  0.00    +0.000 A 
ATOM     29  O   UNL     1      46.232   5.759   8.931  0.00  0.00    +0.000 OA
ATOM     30  C   UNL     1      44.847   4.454  10.366  0.00  0.00    +0.000 A 
ATOM     31  H   UNL     1      45.891   3.969   7.290  0.00  0.00    +0.000 HD
ENDBRANCH  19  21
ENDBRANCH   1  18
TORSDOF 5
ENDMDL
MODEL 3
REMARK VINA RESULT:    -7.580      3.597      8.881
REMARK INTER + INTRA:         -10.287
REMARK INTER:                  -9.007
REMARK INTRA:                  -1.280
REMARK UNBOUND:                -0.492
REMARK  Name = 
REMARK  7 active torsions:
REMARK  status: ('A' for Active; 'I' for Inactive)
REMARK    1  A    between atoms: C_1  and  N_2
REMARK    2  A    between atoms: N_2  and  C_3
REMARK    3  A    between atoms: C_3  and  C_4
REMARK    4  A    between atoms: C_8  and  C_9
REMARK    5  A    between atoms: C_9  and  N_10
REMARK    6  A    between atoms: N_10  and  C_11
REMARK    7  A    between atoms: C_19  and  C_21
REMARK                            x       y       z     vdW  Elec       q    Type
REMARK                         _______ _______ _______ _____ _____    ______ ____
ROOT
ATOM      1  C   UNL     1      47.459   6.103  12.434  0.00  0.00    +0.000 C 
ENDROOT
BRANCH   1   2
ATOM      2  C   UNL     1      47.657   5.749  13.890  0.00  0.00    +0.000 A 
ATOM      3  C   UNL     1      46.996   4.638  14.427  0.00  0.00    +0.000 A 
ATOM      4  C   UNL     1      47.129   4.329  15.778  0.00  0.00    +0.000 A 
ATOM      5  C   UNL     1      47.978   5.085  16.588  0.00  0.00    +0.000 A 
ATOM      6  C   UNL     1      48.713   6.160  16.062  0.00  0.00    +0.000 A 
ATOM      7  C   UNL     1      48.503   6.516  14.720  0.00  0.00    +0.000 A 
BRANCH   6   8
ATOM      8  C   UNL     1      49.830   6.785  16.891  0.00  0.00    +0.000 C 
BRANCH   8   9
ATOM      9  N   UNL     1      51.048   7.204  16.181  0.00  0.00    +0.000 N 
ATOM     10  C   UNL     1      51.344   8.625  16.048  0.00  0.00    +0.000 C 
ATOM     11  C   UNL     1      52.156   6.385  16.510  0.00  0.00    +0.000 A 
ATOM     12  C   UNL     1      53.430   6.629  15.984  0.00  0.00    +0.000 A 
ATOM     13  C   UNL     1      54.523   5.848  16.374  0.00  0.00    +0.000 A 
ATOM     14  C   UNL     1      54.330   4.801  17.258  0.00  0.00    +0.000 A 
ATOM     15  C   UNL     1      53.043   4.579  17.704  0.00  0.00    +0.000 A 
ATOM     16  N   UNL     1      51.978   5.340  17.352  0.00  0.00    +0.000 NA
ENDBRANCH   8   9
ENDBRANCH   6   8
ENDBRANCH   1   2
BRANCH   1  18
ATOM     17  C   UNL     1      46.784   8.542  12.214  0.00  0.00    +0.000 C 
ATOM     18  N   UNL     1      46.462   7.125  12.093  0.00  0.00    +0.000 N 
ATOM     19  C   UNL     1      45.133   6.836  11.709  0.00  0.00    +0.000 C 
ATOM     20  O   UNL     1      44.341   7.744  11.461  0.00  0.00    +0.000 OA
BRANCH  19  21
ATOM     21  C   UNL     1      44.680   5.441  11.636  0.00  0.00    +0.000 A 
ATOM     22  C   UNL     1      43.908   4.813  12.599  0.00  0.00    +0.000 A 
ATOM     23  S   UNL     1      43.499   3.201  12.209  0.00  0.00    +0.000 S 
ATOM     24  C   UNL     1      44.202   3.342  10.668  0.00  0.00    +0.000 A 
ATOM     25  N   UNL     1      44.109   2.331   9.764  0.00  0.00    +0.000 NA
ATOM     26  C   UNL     1      44.618   2.608   8.610  0.00  0.00    +0.000 A 
ATOM     27  N   UNL     1      45.244   3.787   8.293  0.00  0.00    +0.000 N 
ATOM     28  C   UNL     1      45.484   4.783   9.218  0.00  0.00    +0.000 A 
ATOM     29  O   UNL     1      46.244   5.709   8.962  0.00  0.00    +0.000 OA
ATOM     30  C   UNL     1      44.822   4.564  10.493  0.00  0.00    +0.000 A 
ATOM     31  H   UNL     1      45.677   3.914   7.390  0.00  0.00    +0.000 HD
ENDBRANCH  19  21
ENDBRANCH   1  18
TORSDOF 5
ENDMDL
MODEL 4
REMARK VINA RESULT:    -7.484      2.480      3.382
REMARK INTER + INTRA:         -10.164
REMARK INTER:                  -9.115
REMARK INTRA:                  -1.049
REMARK UNBOUND:                -0.492
REMARK  Name = 
REMARK  7 active torsions:
REMARK  status: ('A' for Active; 'I' for Inactive)
REMARK    1  A    between atoms: C_1  and  N_2
REMARK    2  A    between atoms: N_2  and  C_3
REMARK    3  A    between atoms: C_3  and  C_4
REMARK    4  A    between atoms: C_8  and  C_9
REMARK    5  A    between atoms: C_9  and  N_10
REMARK    6  A    between atoms: N_10  and  C_11
REMARK    7  A    between atoms: C_19  and  C_21
REMARK                            x       y       z     vdW  Elec       q    Type
REMARK                         _______ _______ _______ _____ _____    ______ ____
ROOT
ATOM      1  C   UNL     1      48.059   6.432  14.077  0.00  0.00    +0.000 C 
ENDROOT
BRANCH   1   2
ATOM      2  C   UNL     1      46.910   6.992  13.271  0.00  0.00    +0.000 A 
ATOM      3  C   UNL     1      46.664   8.370  13.283  0.00  0.00    +0.000 A 
ATOM      4  C   UNL     1      45.580   8.894  12.586  0.00  0.00    +0.000 A 
ATOM      5  C   UNL     1      44.772   8.057  11.814  0.00  0.00    +0.000 A 
ATOM      6  C   UNL     1      45.039   6.680  11.721  0.00  0.00    +0.000 A 
ATOM      7  C   UNL     1      46.081   6.150  12.498  0.00  0.00    +0.000 A 
BRANCH   6   8
ATOM      8  C   UNL     1      44.323   5.846  10.664  0.00  0.00    +0.000 C 
BRANCH   8   9
ATOM      9  N   UNL     1      44.409   4.382  10.782  0.00  0.00    +0.000 N 
ATOM     10  C   UNL     1      43.261   3.638  11.286  0.00  0.00    +0.000 C 
ATOM     11  C   UNL     1      45.063   3.802   9.668  0.00  0.00    +0.000 A 
ATOM     12  C   UNL     1      45.217   2.416   9.549  0.00  0.00    +0.000 A 
ATOM     13  C   UNL     1      45.808   1.861   8.409  0.00  0.00    +0.000 A 
ATOM     14  C   UNL     1      46.277   2.697   7.410  0.00  0.00    +0.000 A 
ATOM     15  C   UNL     1      46.141   4.056   7.607  0.00  0.00    +0.000 A 
ATOM     16  N   UNL     1      45.552   4.608   8.696  0.00  0.00    +0.000 NA
ENDBRANCH   8   9
ENDBRANCH   6   8
ENDBRANCH   1   2
BRANCH   1  18
ATOM     17  C   UNL     1      49.887   7.663  12.812  0.00  0.00    +0.000 C 
ATOM     18  N   UNL     1      49.338   7.154  14.063  0.00  0.00    +0.000 N 
ATOM     19  C   UNL     1      50.151   7.344  15.203  0.00  0.00    +0.000 C 
ATOM     20  O   UNL     1      51.225   7.938  15.116  0.00  0.00    +0.000 OA
BRANCH  19  21
ATOM     21  C   UNL     1      49.730   6.798  16.500  0.00  0.00    +0.000 A 
ATOM     22  C   UNL     1      50.209   5.621  17.052  0.00  0.00    +0.000 A 
ATOM     23  S   UNL     1      49.565   5.274  18.595  0.00  0.00    +0.000 S 
ATOM     24  C   UNL     1      48.751   6.765  18.648  0.00  0.00    +0.000 A 
ATOM     25  N   UNL     1      48.076   7.152  19.762  0.00  0.00    +0.000 NA
ATOM     26  C   UNL     1      47.574   8.340  19.689  0.00  0.00    +0.000 A 
ATOM     27  N   UNL     1      47.654   9.156  18.589  0.00  0.00    +0.000 N 
ATOM     28  C   UNL     1      48.206   8.751  17.391  0.00  0.00    +0.000 A 
ATOM     29  O   UNL     1      48.052   9.412  16.371  0.00  0.00    +0.000 OA
ATOM     30  C   UNL     1      48.890   7.470  17.468  0.00  0.00    +0.000 A 
ATOM     31  H   UNL     1      47.185  10.049  18.575  0.00  0.00    +0.000 HD
ENDBRANCH  19  21
ENDBRANCH   1  18
TORSDOF 5
ENDMDL
MODEL 5
REMARK VINA RESULT:    -7.471      2.554      3.349
REMARK INTER + INTRA:         -10.147
REMARK INTER:                  -8.710
REMARK INTRA:                  -1.437
REMARK UNBOUND:                -0.492
REMARK  Name = 
REMARK  7 active torsions:
REMARK  status: ('A' for Active; 'I' for Inactive)
REMARK    1  A    between atoms: C_1  and  N_2
REMARK    2  A    between atoms: N_2  and  C_3
REMARK    3  A    between atoms: C_3  and  C_4
REMARK    4  A    between atoms: C_8  and  C_9
REMARK    5  A    between atoms: C_9  and  N_10
REMARK    6  A    between atoms: N_10  and  C_11
REMARK    7  A    between atoms: C_19  and  C_21
REMARK                            x       y       z     vdW  Elec       q    Type
REMARK                         _______ _______ _______ _____ _____    ______ ____
ROOT
ATOM      1  C   UNL     1      50.398   6.887  15.927  0.00  0.00    +0.000 C 
ENDROOT
BRANCH   1   2
ATOM      2  C   UNL     1      49.951   7.399  14.578  0.00  0.00    +0.000 A 
ATOM      3  C   UNL     1      50.754   8.312  13.884  0.00  0.00    +0.000 A 
ATOM      4  C   UNL     1      50.332   8.830  12.663  0.00  0.00    +0.000 A 
ATOM      5  C   UNL     1      49.138   8.389  12.091  0.00  0.00    +0.000 A 
ATOM      6  C   UNL     1      48.346   7.417  12.726  0.00  0.00    +0.000 A 
ATOM      7  C   UNL     1      48.738   6.967  13.997  0.00  0.00    +0.000 A 
BRANCH   6   8
ATOM      8  C   UNL     1      47.208   6.755  11.959  0.00  0.00    +0.000 C 
BRANCH   8   9
ATOM      9  N   UNL     1      45.843   6.937  12.478  0.00  0.00    +0.000 N 
ATOM     10  C   UNL     1      45.054   8.078  12.031  0.00  0.00    +0.000 C 
ATOM     11  C   UNL     1      45.142   5.708  12.552  0.00  0.00    +0.000 A 
ATOM     12  C   UNL     1      43.809   5.650  12.977  0.00  0.00    +0.000 A 
ATOM     13  C   UNL     1      43.115   4.436  12.980  0.00  0.00    +0.000 A 
ATOM     14  C   UNL     1      43.768   3.279  12.593  0.00  0.00    +0.000 A 
ATOM     15  C   UNL     1      45.095   3.392  12.231  0.00  0.00    +0.000 A 
ATOM     16  N   UNL     1      45.775   4.564  12.204  0.00  0.00    +0.000 NA
ENDBRANCH   8   9
ENDBRANCH   6   8
ENDBRANCH   1   2
BRANCH   1  18
ATOM     17  C   UNL     1      49.627   8.599  17.640  0.00  0.00    +0.000 C 
ATOM     18  N   UNL     1      49.599   7.241  17.108  0.00  0.00    +0.000 N 
ATOM     19  C   UNL     1      48.827   6.317  17.846  0.00  0.00    +0.000 C 
ATOM     20  O   UNL     1      48.201   6.677  18.842  0.00  0.00    +0.000 OA
BRANCH  19  21
ATOM     21  C   UNL     1      48.796   4.905  17.444  0.00  0.00    +0.000 A 
ATOM     22  C   UNL     1      47.809   4.331  16.660  0.00  0.00    +0.000 A 
ATOM     23  S   UNL     1      48.073   2.678  16.321  0.00  0.00    +0.000 S 
ATOM     24  C   UNL     1      49.597   2.715  17.074  0.00  0.00    +0.000 A 
ATOM     25  N   UNL     1      50.414   1.630  17.049  0.00  0.00    +0.000 NA
ATOM     26  C   UNL     1      51.570   1.827  17.591  0.00  0.00    +0.000 A 
ATOM     27  N   UNL     1      51.965   2.998  18.187  0.00  0.00    +0.000 N 
ATOM     28  C   UNL     1      51.121   4.076  18.358  0.00  0.00    +0.000 A 
ATOM     29  O   UNL     1      51.429   5.006  19.094  0.00  0.00    +0.000 OA
ATOM     30  C   UNL     1      49.854   3.941  17.657  0.00  0.00    +0.000 A 
ATOM     31  H   UNL     1      52.860   3.065  18.647  0.00  0.00    +0.000 HD
ENDBRANCH  19  21
ENDBRANCH   1  18
TORSDOF 5
ENDMDL
MODEL 6
REMARK VINA RESULT:    -7.271      3.594      5.480
REMARK INTER + INTRA:          -9.889
REMARK INTER:                  -9.733
REMARK INTRA:                  -0.155
REMARK UNBOUND:                -0.492
REMARK  Name = 
REMARK  7 active torsions:
REMARK  status: ('A' for Active; 'I' for Inactive)
REMARK    1  A    between atoms: C_1  and  N_2
REMARK    2  A    between atoms: N_2  and  C_3
REMARK    3  A    between atoms: C_3  and  C_4
REMARK    4  A    between atoms: C_8  and  C_9
REMARK    5  A    between atoms: C_9  and  N_10
REMARK    6  A    between atoms: N_10  and  C_11
REMARK    7  A    between atoms: C_19  and  C_21
REMARK                            x       y       z     vdW  Elec       q    Type
REMARK                         _______ _______ _______ _____ _____    ______ ____
ROOT
ATOM      1  C   UNL     1      46.554   6.472  13.087  0.00  0.00    +0.000 C 
ENDROOT
BRANCH   1   2
ATOM      2  C   UNL     1      45.405   5.595  12.648  0.00  0.00    +0.000 A 
ATOM      3  C   UNL     1      44.144   5.765  13.231  0.00  0.00    +0.000 A 
ATOM      4  C   UNL     1      43.088   4.932  12.873  0.00  0.00    +0.000 A 
ATOM      5  C   UNL     1      43.264   3.966  11.880  0.00  0.00    +0.000 A 
ATOM      6  C   UNL     1      44.497   3.821  11.223  0.00  0.00    +0.000 A 
ATOM      7  C   UNL     1      45.578   4.607  11.653  0.00  0.00    +0.000 A 
BRANCH   6   8
ATOM      8  C   UNL     1      44.583   2.963   9.965  0.00  0.00    +0.000 C 
BRANCH   8   9
ATOM      9  N   UNL     1      45.035   3.617   8.727  0.00  0.00    +0.000 N 
ATOM     10  C   UNL     1      45.465   5.009   8.770  0.00  0.00    +0.000 C 
ATOM     11  C   UNL     1      45.845   2.758   7.945  0.00  0.00    +0.000 A 
ATOM     12  C   UNL     1      46.422   3.187   6.744  0.00  0.00    +0.000 A 
ATOM     13  C   UNL     1      47.272   2.343   6.022  0.00  0.00    +0.000 A 
ATOM     14  C   UNL     1      47.512   1.061   6.483  0.00  0.00    +0.000 A 
ATOM     15  C   UNL     1      46.876   0.679   7.646  0.00  0.00    +0.000 A 
ATOM     16  N   UNL     1      46.065   1.491   8.369  0.00  0.00    +0.000 NA
ENDBRANCH   8   9
ENDBRANCH   6   8
ENDBRANCH   1   2
BRANCH   1  18
ATOM     17  C   UNL     1      47.048   4.879  15.004  0.00  0.00    +0.000 C 
ATOM     18  N   UNL     1      47.462   5.967  14.124  0.00  0.00    +0.000 N 
ATOM     19  C   UNL     1      48.733   6.518  14.400  0.00  0.00    +0.000 C 
ATOM     20  O   UNL     1      49.433   6.061  15.302  0.00  0.00    +0.000 OA
BRANCH  19  21
ATOM     21  C   UNL     1      49.213   7.671  13.627  0.00  0.00    +0.000 A 
ATOM     22  C   UNL     1      49.680   7.606  12.324  0.00  0.00    +0.000 A 
ATOM     23  S   UNL     1      50.123   9.122  11.676  0.00  0.00    +0.000 S 
ATOM     24  C   UNL     1      49.552   9.936  13.055  0.00  0.00    +0.000 A 
ATOM     25  N   UNL     1      49.539  11.294  13.109  0.00  0.00    +0.000 NA
ATOM     26  C   UNL     1      49.006  11.774  14.183  0.00  0.00    +0.000 A 
ATOM     27  N   UNL     1      48.521  11.019  15.221  0.00  0.00    +0.000 N 
ATOM     28  C   UNL     1      48.640   9.645  15.271  0.00  0.00    +0.000 A 
ATOM     29  O   UNL     1      48.411   9.031  16.305  0.00  0.00    +0.000 OA
ATOM     30  C   UNL     1      49.122   9.058  14.031  0.00  0.00    +0.000 A 
ATOM     31  H   UNL     1      48.174  11.460  16.060  0.00  0.00    +0.000 HD
ENDBRANCH  19  21
ENDBRANCH   1  18
TORSDOF 5
ENDMDL
MODEL 7
REMARK VINA RESULT:    -7.199      3.258      8.358
REMARK INTER + INTRA:          -9.795
REMARK INTER:                  -9.566
REMARK INTRA:                  -0.230
REMARK UNBOUND:                -0.492
REMARK  Name = 
REMARK  7 active torsions:
REMARK  status: ('A' for Active; 'I' for Inactive)
REMARK    1  A    between atoms: C_1  and  N_2
REMARK    2  A    between atoms: N_2  and  C_3
REMARK    3  A    between atoms: C_3  and  C_4
REMARK    4  A    between atoms: C_8  and  C_9
REMARK    5  A    between atoms: C_9  and  N_10
REMARK    6  A    between atoms: N_10  and  C_11
REMARK    7  A    between atoms: C_19  and  C_21
REMARK                            x       y       z     vdW  Elec       q    Type
REMARK                         _______ _______ _______ _____ _____    ______ ____
ROOT
ATOM      1  C   UNL     1      47.331   6.403  12.150  0.00  0.00    +0.000 C 
ENDROOT
BRANCH   1   2
ATOM      2  C   UNL     1      48.200   6.677  13.355  0.00  0.00    +0.000 A 
ATOM      3  C   UNL     1      49.159   7.695  13.298  0.00  0.00    +0.000 A 
ATOM      4  C   UNL     1      50.000   7.927  14.383  0.00  0.00    +0.000 A 
ATOM      5  C   UNL     1      49.845   7.190  15.559  0.00  0.00    +0.000 A 
ATOM      6  C   UNL     1      48.842   6.213  15.673  0.00  0.00    +0.000 A 
ATOM      7  C   UNL     1      48.058   5.928  14.544  0.00  0.00    +0.000 A 
BRANCH   6   8
ATOM      8  C   UNL     1      48.516   5.628  17.043  0.00  0.00    +0.000 C 
BRANCH   8   9
ATOM      9  N   UNL     1      48.451   4.162  17.157  0.00  0.00    +0.000 N 
ATOM     10  C   UNL     1      47.564   3.416  16.272  0.00  0.00    +0.000 C 
ATOM     11  C   UNL     1      49.733   3.593  17.348  0.00  0.00    +0.000 A 
ATOM     12  C   UNL     1      49.914   2.208  17.439  0.00  0.00    +0.000 A 
ATOM     13  C   UNL     1      51.196   1.663  17.562  0.00  0.00    +0.000 A 
ATOM     14  C   UNL     1      52.289   2.508  17.632  0.00  0.00    +0.000 A 
ATOM     15  C   UNL     1      52.044   3.865  17.587  0.00  0.00    +0.000 A 
ATOM     16  N   UNL     1      50.810   4.407  17.447  0.00  0.00    +0.000 NA
ENDBRANCH   8   9
ENDBRANCH   6   8
ENDBRANCH   1   2
BRANCH   1  18
ATOM     17  C   UNL     1      46.351   8.742  11.999  0.00  0.00    +0.000 C 
ATOM     18  N   UNL     1      46.195   7.296  11.891  0.00  0.00    +0.000 N 
ATOM     19  C   UNL     1      44.886   6.848  11.603  0.00  0.00    +0.000 C 
ATOM     20  O   UNL     1      43.973   7.653  11.421  0.00  0.00    +0.000 OA
BRANCH  19  21
ATOM     21  C   UNL     1      44.601   5.409  11.552  0.00  0.00    +0.000 A 
ATOM     22  C   UNL     1      43.890   4.712  12.516  0.00  0.00    +0.000 A 
ATOM     23  S   UNL     1      43.680   3.057  12.154  0.00  0.00    +0.000 S 
ATOM     24  C   UNL     1      44.390   3.249  10.621  0.00  0.00    +0.000 A 
ATOM     25  N   UNL     1      44.433   2.218   9.738  0.00  0.00    +0.000 NA
ATOM     26  C   UNL     1      44.928   2.530   8.586  0.00  0.00    +0.000 A 
ATOM     27  N   UNL     1      45.417   3.768   8.255  0.00  0.00    +0.000 N 
ATOM     28  C   UNL     1      45.522   4.803   9.162  0.00  0.00    +0.000 A 
ATOM     29  O   UNL     1      46.172   5.806   8.899  0.00  0.00    +0.000 OA
ATOM     30  C   UNL     1      44.865   4.532  10.431  0.00  0.00    +0.000 A 
ATOM     31  H   UNL     1      45.848   3.928   7.357  0.00  0.00    +0.000 HD
ENDBRANCH  19  21
ENDBRANCH   1  18
TORSDOF 5
ENDMDL
MODEL 8
REMARK VINA RESULT:    -7.096      3.199      4.142
REMARK INTER + INTRA:          -9.663
REMARK INTER:                  -8.411
REMARK INTRA:                  -1.253
REMARK UNBOUND:                -0.492
REMARK  Name = 
REMARK  7 active torsions:
REMARK  status: ('A' for Active; 'I' for Inactive)
REMARK    1  A    between atoms: C_1  and  N_2
REMARK    2  A    between atoms: N_2  and  C_3
REMARK    3  A    between atoms: C_3  and  C_4
REMARK    4  A    between atoms: C_8  and  C_9
REMARK    5  A    between atoms: C_9  and  N_10
REMARK    6  A    between atoms: N_10  and  C_11
REMARK    7  A    between atoms: C_19  and  C_21
REMARK                            x       y       z     vdW  Elec       q    Type
REMARK                         _______ _______ _______ _____ _____    ______ ____
ROOT
ATOM      1  C   UNL     1      48.462   6.484  13.769  0.00  0.00    +0.000 C 
ENDROOT
BRANCH   1   2
ATOM      2  C   UNL     1      47.200   7.000  13.120  0.00  0.00    +0.000 A 
ATOM      3  C   UNL     1      46.824   8.336  13.305  0.00  0.00    +0.000 A 
ATOM      4  C   UNL     1      45.639   8.814  12.754  0.00  0.00    +0.000 A 
ATOM      5  C   UNL     1      44.853   7.981  11.956  0.00  0.00    +0.000 A 
ATOM      6  C   UNL     1      45.241   6.658  11.689  0.00  0.00    +0.000 A 
ATOM      7  C   UNL     1      46.392   6.161  12.321  0.00  0.00    +0.000 A 
BRANCH   6   8
ATOM      8  C   UNL     1      44.521   5.868  10.602  0.00  0.00    +0.000 C 
BRANCH   8   9
ATOM      9  N   UNL     1      44.543   4.400  10.701  0.00  0.00    +0.000 N 
ATOM     10  C   UNL     1      43.362   3.698  11.188  0.00  0.00    +0.000 C 
ATOM     11  C   UNL     1      45.180   3.807   9.583  0.00  0.00    +0.000 A 
ATOM     12  C   UNL     1      45.277   2.418   9.447  0.00  0.00    +0.000 A 
ATOM     13  C   UNL     1      45.852   1.853   8.303  0.00  0.00    +0.000 A 
ATOM     14  C   UNL     1      46.361   2.681   7.319  0.00  0.00    +0.000 A 
ATOM     15  C   UNL     1      46.282   4.042   7.533  0.00  0.00    +0.000 A 
ATOM     16  N   UNL     1      45.710   4.604   8.626  0.00  0.00    +0.000 NA
ENDBRANCH   8   9
ENDBRANCH   6   8
ENDBRANCH   1   2
BRANCH   1  18
ATOM     17  C   UNL     1      47.398   4.988  15.527  0.00  0.00    +0.000 C 
ATOM     18  N   UNL     1      48.386   5.994  15.151  0.00  0.00    +0.000 N 
ATOM     19  C   UNL     1      49.177   6.490  16.211  0.00  0.00    +0.000 C 
ATOM     20  O   UNL     1      49.044   6.051  17.353  0.00  0.00    +0.000 OA
BRANCH  19  21
ATOM     21  C   UNL     1      50.146   7.563  15.959  0.00  0.00    +0.000 A 
ATOM     22  C   UNL     1      51.455   7.364  15.549  0.00  0.00    +0.000 A 
ATOM     23  S   UNL     1      52.323   8.811  15.291  0.00  0.00    +0.000 S 
ATOM     24  C   UNL     1      50.934   9.753  15.560  0.00  0.00    +0.000 A 
ATOM     25  N   UNL     1      50.962  11.101  15.390  0.00  0.00    +0.000 NA
ATOM     26  C   UNL     1      49.816  11.676  15.551  0.00  0.00    +0.000 A 
ATOM     27  N   UNL     1      48.658  11.030  15.902  0.00  0.00    +0.000 N 
ATOM     28  C   UNL     1      48.614   9.688  16.220  0.00  0.00    +0.000 A 
ATOM     29  O   UNL     1      47.624   9.200  16.751  0.00  0.00    +0.000 OA
ATOM     30  C   UNL     1      49.852   8.981  15.935  0.00  0.00    +0.000 A 
ATOM     31  H   UNL     1      47.810  11.549  16.073  0.00  0.00    +0.000 HD
ENDBRANCH  19  21
ENDBRANCH   1  18
TORSDOF 5
ENDMDL
MODEL 9
REMARK VINA RESULT:    -7.002      2.281      2.553
REMARK INTER + INTRA:          -9.541
REMARK INTER:                  -8.629
REMARK INTRA:                  -0.912
REMARK UNBOUND:                -0.492
REMARK  Name = 
REMARK  7 active torsions:
REMARK  status: ('A' for Active; 'I' for Inactive)
REMARK    1  A    between atoms: C_1  and  N_2
REMARK    2  A    between atoms: N_2  and  C_3
REMARK    3  A    between atoms: C_3  and  C_4
REMARK    4  A    between atoms: C_8  and  C_9
REMARK    5  A    between atoms: C_9  and  N_10
REMARK    6  A    between atoms: N_10  and  C_11
REMARK    7  A    between atoms: C_19  and  C_21
REMARK                            x       y       z     vdW  Elec       q    Type
REMARK                         _______ _______ _______ _____ _____    ______ ____
ROOT
ATOM      1  C   UNL     1      48.236   6.109  14.041  0.00  0.00    +0.000 C 
ENDROOT
BRANCH   1   2
ATOM      2  C   UNL     1      47.100   6.751  13.280  0.00  0.00    +0.000 A 
ATOM      3  C   UNL     1      46.947   8.143  13.310  0.00  0.00    +0.000 A 
ATOM      4  C   UNL     1      45.877   8.744  12.654  0.00  0.00    +0.000 A 
ATOM      5  C   UNL     1      44.990   7.969  11.905  0.00  0.00    +0.000 A 
ATOM      6  C   UNL     1      45.160   6.579  11.793  0.00  0.00    +0.000 A 
ATOM      7  C   UNL     1      46.191   5.973  12.530  0.00  0.00    +0.000 A 
BRANCH   6   8
ATOM      8  C   UNL     1      44.355   5.804  10.756  0.00  0.00    +0.000 C 
BRANCH   8   9
ATOM      9  N   UNL     1      44.430   4.335  10.797  0.00  0.00    +0.000 N 
ATOM     10  C   UNL     1      43.269   3.573  11.241  0.00  0.00    +0.000 C 
ATOM     11  C   UNL     1      45.101   3.811   9.665  0.00  0.00    +0.000 A 
ATOM     12  C   UNL     1      45.249   2.432   9.475  0.00  0.00    +0.000 A 
ATOM     13  C   UNL     1      45.857   1.935   8.317  0.00  0.00    +0.000 A 
ATOM     14  C   UNL     1      46.347   2.819   7.373  0.00  0.00    +0.000 A 
ATOM     15  C   UNL     1      46.216   4.166   7.640  0.00  0.00    +0.000 A 
ATOM     16  N   UNL     1      45.611   4.664   8.746  0.00  0.00    +0.000 NA
ENDBRANCH   8   9
ENDBRANCH   6   8
ENDBRANCH   1   2
BRANCH   1  18
ATOM     17  C   UNL     1      47.034   4.270  15.318  0.00  0.00    +0.000 C 
ATOM     18  N   UNL     1      47.930   5.421  15.302  0.00  0.00    +0.000 N 
ATOM     19  C   UNL     1      48.397   5.843  16.567  0.00  0.00    +0.000 C 
ATOM     20  O   UNL     1      48.081   5.233  17.587  0.00  0.00    +0.000 OA
BRANCH  19  21
ATOM     21  C   UNL     1      49.240   7.040  16.672  0.00  0.00    +0.000 A 
ATOM     22  C   UNL     1      48.768   8.342  16.630  0.00  0.00    +0.000 A 
ATOM     23  S   UNL     1      49.986   9.522  16.828  0.00  0.00    +0.000 S 
ATOM     24  C   UNL     1      51.159   8.333  17.140  0.00  0.00    +0.000 A 
ATOM     25  N   UNL     1      52.425   8.678  17.495  0.00  0.00    +0.000 NA
ATOM     26  C   UNL     1      53.185   7.673  17.779  0.00  0.00    +0.000 A 
ATOM     27  N   UNL     1      52.804   6.357  17.702  0.00  0.00    +0.000 N 
ATOM     28  C   UNL     1      51.577   5.957  17.213  0.00  0.00    +0.000 A 
ATOM     29  O   UNL     1      51.361   4.783  16.940  0.00  0.00    +0.000 OA
ATOM     30  C   UNL     1      50.650   7.057  16.999  0.00  0.00    +0.000 A 
ATOM     31  H   UNL     1      53.468   5.618  17.877  0.00  0.00    +0.000 HD
ENDBRANCH  19  21
ENDBRANCH   1  18
TORSDOF 5
ENDMDL
