MODEL 1
REMARK VINA RESULT:    -8.477      0.000      0.000
REMARK INTER + INTRA:         -12.924
REMARK INTER:                 -11.946
REMARK INTRA:                  -0.978
REMARK UNBOUND:                -0.978
REMARK  Name = 
REMARK  8 active torsions:
REMARK  status: ('A' for Active; 'I' for Inactive)
REMARK    1  A    between atoms: C_1  and  C_2
REMARK    2  A    between atoms: C_2  and  N_3
REMARK    3  A    between atoms: C_2  and  C_11
REMARK    4  A    between atoms: N_3  and  C_4
REMARK    5  A    between atoms: C_4  and  C_5
REMARK    6  A    between atoms: C_14  and  C_15
REMARK    7  A    between atoms: C_15  and  N_16
REMARK    8  A    between atoms: C_17  and  C_19
REMARK                            x       y       z     vdW  Elec       q    Type
REMARK                         _______ _______ _______ _____ _____    ______ ____
ROOT
ATOM      1  C   UNL     1      45.407   4.547  12.070  0.00  0.00    +0.000 A 
ATOM      2  C   UNL     1      45.900   5.743  11.517  0.00  0.00    +0.000 A 
ATOM      3  C   UNL     1      46.899   6.481  12.157  0.00  0.00    +0.000 A 
ATOM      4  C   UNL     1      47.471   6.015  13.345  0.00  0.00    +0.000 A 
ATOM      5  C   UNL     1      46.986   4.828  13.906  0.00  0.00    +0.000 A 
ATOM      6  C   UNL     1      45.961   4.106  13.280  0.00  0.00    +0.000 A 
ENDROOT
BRANCH   1   8
ATOM      7  C   UNL     1      43.325   4.782  10.611  0.00  0.00    +0.000 C 
ATOM      8  C   UNL     1      44.253   3.828  11.375  0.00  0.00    +0.000 C 
BRANCH   8   9
ATOM      9  N   UNL     1      44.710   2.777  10.442  0.00  0.00    +0.000 NA
ATOM     10  H   UNL     1      44.067   1.988  10.491  0.00  0.00    +0.000 HD
BRANCH   9  11
ATOM     11  C   UNL     1      44.769   3.254   9.058  0.00  0.00    +0.000 C 
BRANCH  11  12
ATOM     12  C   UNL     1      45.859   2.620   8.230  0.00  0.00    +0.000 A 
ATOM     13  C   UNL     1      46.030   1.230   8.279  0.00  0.00    +0.000 A 
ATOM     14  C   UNL     1      46.986   0.640   7.470  0.00  0.00    +0.000 A 
ATOM     15  N   UNL     1      47.773   1.331   6.621  0.00  0.00    +0.000 NA
ATOM     16  C   UNL     1      47.584   2.670   6.577  0.00  0.00    +0.000 A 
ATOM     17  C   UNL     1      46.652   3.350   7.343  0.00  0.00    +0.000 A 
ENDBRANCH  11  12
ENDBRANCH   9  11
ENDBRANCH   8   9
ENDBRANCH   1   8
BRANCH   4  18
ATOM     18  C   UNL     1      48.567   6.800  14.015  0.00  0.00    +0.000 C 
BRANCH  18  19
ATOM     19  N   UNL     1      48.268   7.023  15.408  0.00  0.00    +0.000 N 
ATOM     20  C   UNL     1      49.093   6.567  16.405  0.00  0.00    +0.000 C 
ATOM     21  O   UNL     1      50.163   6.014  16.165  0.00  0.00    +0.000 OA
ATOM     22  H   UNL     1      47.313   7.280  15.632  0.00  0.00    +0.000 HD
BRANCH  20  23
ATOM     23  C   UNL     1      48.665   6.831  17.783  0.00  0.00    +0.000 A 
ATOM     24  C   UNL     1      48.304   8.119  18.153  0.00  0.00    +0.000 A 
ATOM     25  S   UNL     1      47.801   8.251  19.776  0.00  0.00    +0.000 S 
ATOM     26  C   UNL     1      48.095   6.596  20.057  0.00  0.00    +0.000 A 
ATOM     27  N   UNL     1      47.888   6.053  21.286  0.00  0.00    +0.000 NA
ATOM     28  C   UNL     1      48.182   4.799  21.368  0.00  0.00    +0.000 A 
ATOM     29  N   UNL     1      48.654   4.039  20.330  0.00  0.00    +0.000 N 
ATOM     30  C   UNL     1      48.844   4.539  19.062  0.00  0.00    +0.000 A 
ATOM     31  O   UNL     1      49.214   3.818  18.140  0.00  0.00    +0.000 OA
ATOM     32  C   UNL     1      48.547   5.953  18.923  0.00  0.00    +0.000 A 
ATOM     33  H   UNL     1      48.851   3.058  20.459  0.00  0.00    +0.000 HD
ENDBRANCH  20  23
ENDBRANCH  18  19
ENDBRANCH   4  18
TORSDOF 7
ENDMDL
MODEL 2
REMARK VINA RESULT:    -8.307      1.374      2.127
REMARK INTER + INTRA:         -12.685
REMARK INTER:                 -11.446
REMARK INTRA:                  -1.239
REMARK UNBOUND:                -0.978
REMARK  Name = 
REMARK  8 active torsions:
REMARK  status: ('A' for Active; 'I' for Inactive)
REMARK    1  A    between atoms: C_1  and  C_2
REMARK    2  A    between atoms: C_2  and  N_3
REMARK    3  A    between atoms: C_2  and  C_11
REMARK    4  A    between atoms: N_3  and  C_4
REMARK    5  A    between atoms: C_4  and  C_5
REMARK    6  A    between atoms: C_14  and  C_15
REMARK    7  A    between atoms: C_15  and  N_16
REMARK    8  A    between atoms: C_17  and  C_19
REMARK                            x       y       z     vdW  Elec       q    Type
REMARK                         _______ _______ _______ _____ _____    ______ ____
ROOT
ATOM      1  C   UNL     1      45.622   4.972  11.573  0.00  0.00    +0.000 A 
ATOM      2  C   UNL     1      45.931   4.527  12.872  0.00  0.00    +0.000 A 
ATOM      3  C   UNL     1      46.815   5.235  13.690  0.00  0.00    +0.000 A 
ATOM      4  C   UNL     1      47.376   6.438  13.250  0.00  0.00    +0.000 A 
ATOM      5  C   UNL     1      47.079   6.888  11.959  0.00  0.00    +0.000 A 
ATOM      6  C   UNL     1      46.218   6.160  11.127  0.00  0.00    +0.000 A 
ENDROOT
BRANCH   1   8
ATOM      7  C   UNL     1      43.294   3.977  11.238  0.00  0.00    +0.000 C 
ATOM      8  C   UNL     1      44.722   4.113  10.688  0.00  0.00    +0.000 C 
BRANCH   8   9
ATOM      9  N   UNL     1      44.639   4.609   9.299  0.00  0.00    +0.000 NA
ATOM     10  H   UNL     1      45.507   5.089   9.067  0.00  0.00    +0.000 HD
BRANCH   9  11
ATOM     11  C   UNL     1      44.424   3.527   8.336  0.00  0.00    +0.000 C 
BRANCH  11  12
ATOM     12  C   UNL     1      45.688   2.839   7.885  0.00  0.00    +0.000 A 
ATOM     13  C   UNL     1      45.863   1.480   8.177  0.00  0.00    +0.000 A 
ATOM     14  C   UNL     1      46.992   0.829   7.706  0.00  0.00    +0.000 A 
ATOM     15  N   UNL     1      47.945   1.433   6.968  0.00  0.00    +0.000 NA
ATOM     16  C   UNL     1      47.752   2.741   6.684  0.00  0.00    +0.000 A 
ATOM     17  C   UNL     1      46.656   3.475   7.106  0.00  0.00    +0.000 A 
ENDBRANCH  11  12
ENDBRANCH   9  11
ENDBRANCH   8   9
ENDBRANCH   1   8
BRANCH   4  18
ATOM     18  C   UNL     1      48.306   7.211  14.148  0.00  0.00    +0.000 C 
BRANCH  18  19
ATOM     19  N   UNL     1      48.138   6.823  15.526  0.00  0.00    +0.000 N 
ATOM     20  C   UNL     1      49.194   6.396  16.290  0.00  0.00    +0.000 C 
ATOM     21  O   UNL     1      50.347   6.393  15.867  0.00  0.00    +0.000 OA
ATOM     22  H   UNL     1      47.191   6.617  15.828  0.00  0.00    +0.000 HD
BRANCH  20  23
ATOM     23  C   UNL     1      48.889   6.002  17.670  0.00  0.00    +0.000 A 
ATOM     24  C   UNL     1      49.100   4.690  18.070  0.00  0.00    +0.000 A 
ATOM     25  S   UNL     1      48.728   4.404  19.709  0.00  0.00    +0.000 S 
ATOM     26  C   UNL     1      48.224   6.017  19.930  0.00  0.00    +0.000 A 
ATOM     27  N   UNL     1      47.750   6.437  21.133  0.00  0.00    +0.000 NA
ATOM     28  C   UNL     1      47.372   7.671  21.153  0.00  0.00    +0.000 A 
ATOM     29  N   UNL     1      47.435   8.523  20.081  0.00  0.00    +0.000 N 
ATOM     30  C   UNL     1      47.940   8.150  18.857  0.00  0.00    +0.000 A 
ATOM     31  O   UNL     1      48.036   8.953  17.934  0.00  0.00    +0.000 OA
ATOM     32  C   UNL     1      48.360   6.763  18.777  0.00  0.00    +0.000 A 
ATOM     33  H   UNL     1      47.135   9.482  20.169  0.00  0.00    +0.000 HD
ENDBRANCH  20  23
ENDBRANCH  18  19
ENDBRANCH   4  18
TORSDOF 7
ENDMDL
MODEL 3
REMARK VINA RESULT:    -7.432      3.446      8.855
REMARK INTER + INTRA:         -11.451
REMARK INTER:                  -9.749
REMARK INTRA:                  -1.702
REMARK UNBOUND:                -0.978
REMARK  Name = 
REMARK  8 active torsions:
REMARK  status: ('A' for Active; 'I' for Inactive)
REMARK    1  A    between atoms: C_1  and  C_2
REMARK    2  A    between atoms: C_2  and  N_3
REMARK    3  A    between atoms: C_2  and  C_11
REMARK    4  A    between atoms: N_3  and  C_4
REMARK    5  A    between atoms: C_4  and  C_5
REMARK    6  A    between atoms: C_14  and  C_15
REMARK    7  A    between atoms: C_15  and  N_16
REMARK    8  A    between atoms: C_17  and  C_19
REMARK                            x       y       z     vdW  Elec       q    Type
REMARK                         _______ _______ _______ _____ _____    ______ ____
ROOT
ATOM      1  C   UNL     1      49.457   7.989  16.268  0.00  0.00    +0.000 A 
ATOM      2  C   UNL     1      50.072   7.229  15.256  0.00  0.00    +0.000 A 
ATOM      3  C   UNL     1      49.551   7.190  13.961  0.00  0.00    +0.000 A 
ATOM      4  C   UNL     1      48.427   7.954  13.627  0.00  0.00    +0.000 A 
ATOM      5  C   UNL     1      47.806   8.710  14.627  0.00  0.00    +0.000 A 
ATOM      6  C   UNL     1      48.310   8.722  15.933  0.00  0.00    +0.000 A 
ENDROOT
BRANCH   1   8
ATOM      7  C   UNL     1      49.026   8.435  18.746  0.00  0.00    +0.000 C 
ATOM      8  C   UNL     1      50.015   7.924  17.688  0.00  0.00    +0.000 C 
BRANCH   8   9
ATOM      9  N   UNL     1      50.446   6.564  18.074  0.00  0.00    +0.000 NA
ATOM     10  H   UNL     1      51.083   6.631  18.865  0.00  0.00    +0.000 HD
BRANCH   9  11
ATOM     11  C   UNL     1      49.316   5.710  18.446  0.00  0.00    +0.000 C 
BRANCH  11  12
ATOM     12  C   UNL     1      49.286   4.378  17.737  0.00  0.00    +0.000 A 
ATOM     13  C   UNL     1      48.177   4.055  16.944  0.00  0.00    +0.000 A 
ATOM     14  C   UNL     1      48.177   2.863  16.239  0.00  0.00    +0.000 A 
ATOM     15  N   UNL     1      49.197   1.982  16.266  0.00  0.00    +0.000 NA
ATOM     16  C   UNL     1      50.265   2.318  17.025  0.00  0.00    +0.000 A 
ATOM     17  C   UNL     1      50.361   3.487  17.761  0.00  0.00    +0.000 A 
ENDBRANCH  11  12
ENDBRANCH   9  11
ENDBRANCH   8   9
ENDBRANCH   1   8
BRANCH   4  18
ATOM     18  C   UNL     1      47.888   7.930  12.221  0.00  0.00    +0.000 C 
BRANCH  18  19
ATOM     19  N   UNL     1      47.102   6.744  11.987  0.00  0.00    +0.000 N 
ATOM     20  C   UNL     1      45.731   6.767  12.026  0.00  0.00    +0.000 C 
ATOM     21  O   UNL     1      45.100   7.809  12.185  0.00  0.00    +0.000 OA
ATOM     22  H   UNL     1      47.586   5.856  12.066  0.00  0.00    +0.000 HD
BRANCH  20  23
ATOM     23  C   UNL     1      45.046   5.490  11.801  0.00  0.00    +0.000 A 
ATOM     24  C   UNL     1      44.332   4.903  12.837  0.00  0.00    +0.000 A 
ATOM     25  S   UNL     1      43.570   3.441  12.403  0.00  0.00    +0.000 S 
ATOM     26  C   UNL     1      44.208   3.515  10.824  0.00  0.00    +0.000 A 
ATOM     27  N   UNL     1      43.953   2.528   9.925  0.00  0.00    +0.000 NA
ATOM     28  C   UNL     1      44.525   2.693   8.779  0.00  0.00    +0.000 A 
ATOM     29  N   UNL     1      45.320   3.760   8.452  0.00  0.00    +0.000 N 
ATOM     30  C   UNL     1      45.575   4.798   9.318  0.00  0.00    +0.000 A 
ATOM     31  O   UNL     1      46.245   5.767   8.974  0.00  0.00    +0.000 OA
ATOM     32  C   UNL     1      44.971   4.649  10.629  0.00  0.00    +0.000 A 
ATOM     33  H   UNL     1      45.726   3.835   7.531  0.00  0.00    +0.000 HD
ENDBRANCH  20  23
ENDBRANCH  18  19
ENDBRANCH   4  18
TORSDOF 7
ENDMDL
MODEL 4
REMARK VINA RESULT:    -7.335      2.746      3.361
REMARK INTER + INTRA:         -11.315
REMARK INTER:                  -9.619
REMARK INTRA:                  -1.696
REMARK UNBOUND:                -0.978
REMARK  Name = 
REMARK  8 active torsions:
REMARK  status: ('A' for Active; 'I' for Inactive)
REMARK    1  A    between atoms: C_1  and  C_2
REMARK    2  A    between atoms: C_2  and  N_3
REMARK    3  A    between atoms: C_2  and  C_11
REMARK    4  A    between atoms: N_3  and  C_4
REMARK    5  A    between atoms: C_4  and  C_5
REMARK    6  A    between atoms: C_14  and  C_15
REMARK    7  A    between atoms: C_15  and  N_16
REMARK    8  A    between atoms: C_17  and  C_19
REMARK                            x       y       z     vdW  Elec       q    Type
REMARK                         _______ _______ _______ _____ _____    ______ ____
ROOT
ATOM      1  C   UNL     1      45.346   5.141  12.971  0.00  0.00    +0.000 A 
ATOM      2  C   UNL     1      45.228   6.463  12.505  0.00  0.00    +0.000 A 
ATOM      3  C   UNL     1      46.332   7.319  12.465  0.00  0.00    +0.000 A 
ATOM      4  C   UNL     1      47.598   6.860  12.842  0.00  0.00    +0.000 A 
ATOM      5  C   UNL     1      47.726   5.547  13.311  0.00  0.00    +0.000 A 
ATOM      6  C   UNL     1      46.612   4.700  13.381  0.00  0.00    +0.000 A 
ENDROOT
BRANCH   1   8
ATOM      7  C   UNL     1      42.832   4.980  12.555  0.00  0.00    +0.000 C 
ATOM      8  C   UNL     1      44.092   4.277  13.079  0.00  0.00    +0.000 C 
BRANCH   8   9
ATOM      9  N   UNL     1      44.225   2.981  12.381  0.00  0.00    +0.000 NA
ATOM     10  H   UNL     1      43.789   2.255  12.945  0.00  0.00    +0.000 HD
BRANCH   9  11
ATOM     11  C   UNL     1      43.595   2.997  11.059  0.00  0.00    +0.000 C 
BRANCH  11  12
ATOM     12  C   UNL     1      44.566   3.126   9.911  0.00  0.00    +0.000 A 
ATOM     13  C   UNL     1      45.041   1.964   9.289  0.00  0.00    +0.000 A 
ATOM     14  C   UNL     1      45.880   2.082   8.193  0.00  0.00    +0.000 A 
ATOM     15  N   UNL     1      46.269   3.265   7.677  0.00  0.00    +0.000 NA
ATOM     16  C   UNL     1      45.788   4.376   8.281  0.00  0.00    +0.000 A 
ATOM     17  C   UNL     1      44.943   4.361   9.379  0.00  0.00    +0.000 A 
ENDBRANCH  11  12
ENDBRANCH   9  11
ENDBRANCH   8   9
ENDBRANCH   1   8
BRANCH   4  18
ATOM     18  C   UNL     1      48.788   7.779  12.770  0.00  0.00    +0.000 C 
BRANCH  18  19
ATOM     19  N   UNL     1      49.854   7.315  13.622  0.00  0.00    +0.000 N 
ATOM     20  C   UNL     1      50.549   8.170  14.439  0.00  0.00    +0.000 C 
ATOM     21  O   UNL     1      50.252   9.357  14.546  0.00  0.00    +0.000 OA
ATOM     22  H   UNL     1      50.250   6.408  13.400  0.00  0.00    +0.000 HD
BRANCH  20  23
ATOM     23  C   UNL     1      51.631   7.582  15.236  0.00  0.00    +0.000 A 
ATOM     24  C   UNL     1      52.932   8.036  15.067  0.00  0.00    +0.000 A 
ATOM     25  S   UNL     1      54.063   7.275  16.090  0.00  0.00    +0.000 S 
ATOM     26  C   UNL     1      52.859   6.273  16.764  0.00  0.00    +0.000 A 
ATOM     27  N   UNL     1      53.174   5.346  17.706  0.00  0.00    +0.000 NA
ATOM     28  C   UNL     1      52.174   4.634  18.106  0.00  0.00    +0.000 A 
ATOM     29  N   UNL     1      50.888   4.773  17.653  0.00  0.00    +0.000 N 
ATOM     30  C   UNL     1      50.519   5.721  16.727  0.00  0.00    +0.000 A 
ATOM     31  O   UNL     1      49.348   5.857  16.385  0.00  0.00    +0.000 OA
ATOM     32  C   UNL     1      51.613   6.535  16.230  0.00  0.00    +0.000 A 
ATOM     33  H   UNL     1      50.149   4.191  18.019  0.00  0.00    +0.000 HD
ENDBRANCH  20  23
ENDBRANCH  18  19
ENDBRANCH   4  18
TORSDOF 7
ENDMDL
MODEL 5
REMARK VINA RESULT:    -7.035      4.189      8.953
REMARK INTER + INTRA:         -10.892
REMARK INTER:                  -9.365
REMARK INTRA:                  -1.527
REMARK UNBOUND:                -0.978
REMARK  Name = 
REMARK  8 active torsions:
REMARK  status: ('A' for Active; 'I' for Inactive)
REMARK    1  A    between atoms: C_1  and  C_2
REMARK    2  A    between atoms: C_2  and  N_3
REMARK    3  A    between atoms: C_2  and  C_11
REMARK    4  A    between atoms: N_3  and  C_4
REMARK    5  A    between atoms: C_4  and  C_5
REMARK    6  A    between atoms: C_14  and  C_15
REMARK    7  A    between atoms: C_15  and  N_16
REMARK    8  A    between atoms: C_17  and  C_19
REMARK                            x       y       z     vdW  Elec       q    Type
REMARK                         _______ _______ _______ _____ _____    ______ ____
ROOT
ATOM      1  C   UNL     1      51.418   3.930  18.008  0.00  0.00    +0.000 A 
ATOM      2  C   UNL     1      50.972   2.719  17.448  0.00  0.00    +0.000 A 
ATOM      3  C   UNL     1      49.629   2.524  17.114  0.00  0.00    +0.000 A 
ATOM      4  C   UNL     1      48.702   3.557  17.284  0.00  0.00    +0.000 A 
ATOM      5  C   UNL     1      49.133   4.765  17.844  0.00  0.00    +0.000 A 
ATOM      6  C   UNL     1      50.474   4.947  18.209  0.00  0.00    +0.000 A 
ENDROOT
BRANCH   1   8
ATOM      7  C   UNL     1      53.807   3.080  17.703  0.00  0.00    +0.000 C 
ATOM      8  C   UNL     1      52.877   4.057  18.438  0.00  0.00    +0.000 C 
BRANCH   8   9
ATOM      9  N   UNL     1      53.410   5.424  18.265  0.00  0.00    +0.000 NA
ATOM     10  H   UNL     1      53.903   5.697  19.113  0.00  0.00    +0.000 HD
BRANCH   9  11
ATOM     11  C   UNL     1      54.332   5.519  17.130  0.00  0.00    +0.000 C 
BRANCH  11  12
ATOM     12  C   UNL     1      53.848   6.408  16.012  0.00  0.00    +0.000 A 
ATOM     13  C   UNL     1      52.618   7.065  16.149  0.00  0.00    +0.000 A 
ATOM     14  C   UNL     1      52.203   7.933  15.152  0.00  0.00    +0.000 A 
ATOM     15  N   UNL     1      52.923   8.192  14.043  0.00  0.00    +0.000 NA
ATOM     16  C   UNL     1      54.115   7.560  13.935  0.00  0.00    +0.000 A 
ATOM     17  C   UNL     1      54.617   6.679  14.878  0.00  0.00    +0.000 A 
ENDBRANCH  11  12
ENDBRANCH   9  11
ENDBRANCH   8   9
ENDBRANCH   1   8
BRANCH   4  18
ATOM     18  C   UNL     1      47.262   3.351  16.895  0.00  0.00    +0.000 C 
BRANCH  18  19
ATOM     19  N   UNL     1      46.835   4.341  15.938  0.00  0.00    +0.000 N 
ATOM     20  C   UNL     1      46.923   4.124  14.587  0.00  0.00    +0.000 C 
ATOM     21  O   UNL     1      47.296   3.051  14.121  0.00  0.00    +0.000 OA
ATOM     22  H   UNL     1      46.729   5.290  16.283  0.00  0.00    +0.000 HD
BRANCH  20  23
ATOM     23  C   UNL     1      46.485   5.220  13.716  0.00  0.00    +0.000 A 
ATOM     24  C   UNL     1      47.311   6.319  13.529  0.00  0.00    +0.000 A 
ATOM     25  S   UNL     1      46.670   7.486  12.465  0.00  0.00    +0.000 S 
ATOM     26  C   UNL     1      45.239   6.584  12.252  0.00  0.00    +0.000 A 
ATOM     27  N   UNL     1      44.237   7.048  11.461  0.00  0.00    +0.000 NA
ATOM     28  C   UNL     1      43.199   6.283  11.415  0.00  0.00    +0.000 A 
ATOM     29  N   UNL     1      43.079   5.091  12.082  0.00  0.00    +0.000 N 
ATOM     30  C   UNL     1      44.082   4.567  12.865  0.00  0.00    +0.000 A 
ATOM     31  O   UNL     1      43.965   3.471  13.403  0.00  0.00    +0.000 OA
ATOM     32  C   UNL     1      45.264   5.402  12.966  0.00  0.00    +0.000 A 
ATOM     33  H   UNL     1      42.243   4.534  11.992  0.00  0.00    +0.000 HD
ENDBRANCH  20  23
ENDBRANCH  18  19
ENDBRANCH   4  18
TORSDOF 7
ENDMDL
MODEL 6
REMARK VINA RESULT:    -6.982      2.528      3.400
REMARK INTER + INTRA:         -10.818
REMARK INTER:                  -9.795
REMARK INTRA:                  -1.023
REMARK UNBOUND:                -0.978
REMARK  Name = 
REMARK  8 active torsions:
REMARK  status: ('A' for Active; 'I' for Inactive)
REMARK    1  A    between atoms: C_1  and  C_2
REMARK    2  A    between atoms: C_2  and  N_3
REMARK    3  A    between atoms: C_2  and  C_11
REMARK    4  A    between atoms: N_3  and  C_4
REMARK    5  A    between atoms: C_4  and  C_5
REMARK    6  A    between atoms: C_14  and  C_15
REMARK    7  A    between atoms: C_15  and  N_16
REMARK    8  A    between atoms: C_17  and  C_19
REMARK                            x       y       z     vdW  Elec       q    Type
REMARK                         _______ _______ _______ _____ _____    ______ ____
ROOT
ATOM      1  C   UNL     1      44.801   4.147  12.105  0.00  0.00    +0.000 A 
ATOM      2  C   UNL     1      45.721   3.170  12.529  0.00  0.00    +0.000 A 
ATOM      3  C   UNL     1      46.703   3.463  13.479  0.00  0.00    +0.000 A 
ATOM      4  C   UNL     1      46.760   4.728  14.071  0.00  0.00    +0.000 A 
ATOM      5  C   UNL     1      45.853   5.709  13.655  0.00  0.00    +0.000 A 
ATOM      6  C   UNL     1      44.890   5.424  12.678  0.00  0.00    +0.000 A 
ENDROOT
BRANCH   1   8
ATOM      7  C   UNL     1      43.278   5.037  10.259  0.00  0.00    +0.000 C 
ATOM      8  C   UNL     1      43.807   3.801  11.000  0.00  0.00    +0.000 C 
BRANCH   8   9
ATOM      9  N   UNL     1      44.363   2.864  10.001  0.00  0.00    +0.000 NA
ATOM     10  H   UNL     1      43.642   2.194   9.739  0.00  0.00    +0.000 HD
BRANCH   9  11
ATOM     11  C   UNL     1      44.830   3.553   8.796  0.00  0.00    +0.000 C 
BRANCH  11  12
ATOM     12  C   UNL     1      45.919   2.824   8.048  0.00  0.00    +0.000 A 
ATOM     13  C   UNL     1      46.070   1.444   8.241  0.00  0.00    +0.000 A 
ATOM     14  C   UNL     1      47.025   0.761   7.505  0.00  0.00    +0.000 A 
ATOM     15  N   UNL     1      47.829   1.352   6.599  0.00  0.00    +0.000 NA
ATOM     16  C   UNL     1      47.660   2.682   6.416  0.00  0.00    +0.000 A 
ATOM     17  C   UNL     1      46.730   3.449   7.099  0.00  0.00    +0.000 A 
ENDBRANCH  11  12
ENDBRANCH   9  11
ENDBRANCH   8   9
ENDBRANCH   1   8
BRANCH   4  18
ATOM     18  C   UNL     1      47.804   5.028  15.115  0.00  0.00    +0.000 C 
BRANCH  18  19
ATOM     19  N   UNL     1      48.117   6.435  15.146  0.00  0.00    +0.000 N 
ATOM     20  C   UNL     1      48.801   6.999  16.193  0.00  0.00    +0.000 C 
ATOM     21  O   UNL     1      49.247   6.328  17.119  0.00  0.00    +0.000 OA
ATOM     22  H   UNL     1      47.589   7.031  14.518  0.00  0.00    +0.000 HD
BRANCH  20  23
ATOM     23  C   UNL     1      49.033   8.446  16.121  0.00  0.00    +0.000 A 
ATOM     24  C   UNL     1      49.826   8.963  15.106  0.00  0.00    +0.000 A 
ATOM     25  S   UNL     1      49.970  10.661  15.145  0.00  0.00    +0.000 S 
ATOM     26  C   UNL     1      49.015  10.762  16.553  0.00  0.00    +0.000 A 
ATOM     27  N   UNL     1      48.766  11.964  17.138  0.00  0.00    +0.000 NA
ATOM     28  C   UNL     1      48.058  11.893  18.214  0.00  0.00    +0.000 A 
ATOM     29  N   UNL     1      47.570  10.731  18.751  0.00  0.00    +0.000 N 
ATOM     30  C   UNL     1      47.768   9.498  18.174  0.00  0.00    +0.000 A 
ATOM     31  O   UNL     1      47.269   8.483  18.649  0.00  0.00    +0.000 OA
ATOM     32  C   UNL     1      48.577   9.522  16.969  0.00  0.00    +0.000 A 
ATOM     33  H   UNL     1      47.010  10.748  19.591  0.00  0.00    +0.000 HD
ENDBRANCH  20  23
ENDBRANCH  18  19
ENDBRANCH   4  18
TORSDOF 7
ENDMDL
MODEL 7
REMARK VINA RESULT:    -6.906      3.589      8.412
REMARK INTER + INTRA:         -10.710
REMARK INTER:                  -8.405
REMARK INTRA:                  -2.305
REMARK UNBOUND:                -0.978
REMARK  Name = 
REMARK  8 active torsions:
REMARK  status: ('A' for Active; 'I' for Inactive)
REMARK    1  A    between atoms: C_1  and  C_2
REMARK    2  A    between atoms: C_2  and  N_3
REMARK    3  A    between atoms: C_2  and  C_11
REMARK    4  A    between atoms: N_3  and  C_4
REMARK    5  A    between atoms: C_4  and  C_5
REMARK    6  A    between atoms: C_14  and  C_15
REMARK    7  A    between atoms: C_15  and  N_16
REMARK    8  A    between atoms: C_17  and  C_19
REMARK                            x       y       z     vdW  Elec       q    Type
REMARK                         _______ _______ _______ _____ _____    ______ ____
ROOT
ATOM      1  C   UNL     1      49.688   7.547  18.766  0.00  0.00    +0.000 A 
ATOM      2  C   UNL     1      50.259   7.191  17.530  0.00  0.00    +0.000 A 
ATOM      3  C   UNL     1      49.751   7.687  16.327  0.00  0.00    +0.000 A 
ATOM      4  C   UNL     1      48.687   8.595  16.329  0.00  0.00    +0.000 A 
ATOM      5  C   UNL     1      48.108   8.952  17.552  0.00  0.00    +0.000 A 
ATOM      6  C   UNL     1      48.598   8.429  18.756  0.00  0.00    +0.000 A 
ENDROOT
BRANCH   1   8
ATOM      7  C   UNL     1      49.335   7.170  21.268  0.00  0.00    +0.000 C 
ATOM      8  C   UNL     1      50.224   6.906  20.044  0.00  0.00    +0.000 C 
BRANCH   8   9
ATOM      9  N   UNL     1      50.418   5.446  19.917  0.00  0.00    +0.000 NA
ATOM     10  H   UNL     1      51.052   5.132  20.649  0.00  0.00    +0.000 HD
BRANCH   9  11
ATOM     11  C   UNL     1      49.158   4.709  20.033  0.00  0.00    +0.000 C 
BRANCH  11  12
ATOM     12  C   UNL     1      48.620   4.192  18.722  0.00  0.00    +0.000 A 
ATOM     13  C   UNL     1      49.285   3.138  18.082  0.00  0.00    +0.000 A 
ATOM     14  C   UNL     1      48.755   2.617  16.913  0.00  0.00    +0.000 A 
ATOM     15  N   UNL     1      47.618   3.067  16.346  0.00  0.00    +0.000 NA
ATOM     16  C   UNL     1      46.981   4.074  16.985  0.00  0.00    +0.000 A 
ATOM     17  C   UNL     1      47.430   4.657  18.160  0.00  0.00    +0.000 A 
ENDBRANCH  11  12
ENDBRANCH   9  11
ENDBRANCH   8   9
ENDBRANCH   1   8
BRANCH   4  18
ATOM     18  C   UNL     1      48.162   9.147  15.030  0.00  0.00    +0.000 C 
BRANCH  18  19
ATOM     19  N   UNL     1      47.242   8.226  14.409  0.00  0.00    +0.000 N 
ATOM     20  C   UNL     1      46.993   8.254  13.061  0.00  0.00    +0.000 C 
ATOM     21  O   UNL     1      47.595   9.009  12.301  0.00  0.00    +0.000 OA
ATOM     22  H   UNL     1      46.591   7.751  15.025  0.00  0.00    +0.000 HD
BRANCH  20  23
ATOM     23  C   UNL     1      46.015   7.285  12.554  0.00  0.00    +0.000 A 
ATOM     24  C   UNL     1      44.912   7.735  11.842  0.00  0.00    +0.000 A 
ATOM     25  S   UNL     1      43.891   6.483  11.296  0.00  0.00    +0.000 S 
ATOM     26  C   UNL     1      44.865   5.295  12.035  0.00  0.00    +0.000 A 
ATOM     27  N   UNL     1      44.526   3.981  11.968  0.00  0.00    +0.000 NA
ATOM     28  C   UNL     1      45.331   3.193  12.599  0.00  0.00    +0.000 A 
ATOM     29  N   UNL     1      46.447   3.602  13.281  0.00  0.00    +0.000 N 
ATOM     30  C   UNL     1      46.845   4.917  13.345  0.00  0.00    +0.000 A 
ATOM     31  O   UNL     1      47.881   5.244  13.916  0.00  0.00    +0.000 OA
ATOM     32  C   UNL     1      45.960   5.847  12.667  0.00  0.00    +0.000 A 
ATOM     33  H   UNL     1      47.042   2.930  13.742  0.00  0.00    +0.000 HD
ENDBRANCH  20  23
ENDBRANCH  18  19
ENDBRANCH   4  18
TORSDOF 7
ENDMDL
MODEL 8
REMARK VINA RESULT:    -6.779      4.387      8.775
REMARK INTER + INTRA:         -10.532
REMARK INTER:                  -8.560
REMARK INTRA:                  -1.972
REMARK UNBOUND:                -0.978
REMARK  Name = 
REMARK  8 active torsions:
REMARK  status: ('A' for Active; 'I' for Inactive)
REMARK    1  A    between atoms: C_1  and  C_2
REMARK    2  A    between atoms: C_2  and  N_3
REMARK    3  A    between atoms: C_2  and  C_11
REMARK    4  A    between atoms: N_3  and  C_4
REMARK    5  A    between atoms: C_4  and  C_5
REMARK    6  A    between atoms: C_14  and  C_15
REMARK    7  A    between atoms: C_15  and  N_16
REMARK    8  A    between atoms: C_17  and  C_19
REMARK                            x       y       z     vdW  Elec       q    Type
REMARK                         _______ _______ _______ _____ _____    ______ ____
ROOT
ATOM      1  C   UNL     1      51.505   3.555  18.052  0.00  0.00    +0.000 A 
ATOM      2  C   UNL     1      50.981   2.426  17.395  0.00  0.00    +0.000 A 
ATOM      3  C   UNL     1      49.629   2.349  17.052  0.00  0.00    +0.000 A 
ATOM      4  C   UNL     1      48.772   3.424  17.308  0.00  0.00    +0.000 A 
ATOM      5  C   UNL     1      49.281   4.550  17.964  0.00  0.00    +0.000 A 
ATOM      6  C   UNL     1      50.630   4.612  18.338  0.00  0.00    +0.000 A 
ENDROOT
BRANCH   1   8
ATOM      7  C   UNL     1      53.835   2.585  17.661  0.00  0.00    +0.000 C 
ATOM      8  C   UNL     1      52.969   3.549  18.485  0.00  0.00    +0.000 C 
BRANCH   8   9
ATOM      9  N   UNL     1      53.589   4.890  18.434  0.00  0.00    +0.000 NA
ATOM     10  H   UNL     1      54.053   5.073  19.322  0.00  0.00    +0.000 HD
BRANCH   9  11
ATOM     11  C   UNL     1      54.570   5.005  17.353  0.00  0.00    +0.000 C 
BRANCH  11  12
ATOM     12  C   UNL     1      54.167   5.953  16.250  0.00  0.00    +0.000 A 
ATOM     13  C   UNL     1      52.978   6.682  16.381  0.00  0.00    +0.000 A 
ATOM     14  C   UNL     1      52.641   7.602  15.401  0.00  0.00    +0.000 A 
ATOM     15  N   UNL     1      53.401   7.844  14.314  0.00  0.00    +0.000 NA
ATOM     16  C   UNL     1      54.552   7.141  14.212  0.00  0.00    +0.000 A 
ATOM     17  C   UNL     1      54.977   6.204  15.141  0.00  0.00    +0.000 A 
ENDBRANCH  11  12
ENDBRANCH   9  11
ENDBRANCH   8   9
ENDBRANCH   1   8
BRANCH   4  18
ATOM     18  C   UNL     1      47.322   3.346  16.910  0.00  0.00    +0.000 C 
BRANCH  18  19
ATOM     19  N   UNL     1      46.990   4.376  15.957  0.00  0.00    +0.000 N 
ATOM     20  C   UNL     1      47.031   4.149  14.605  0.00  0.00    +0.000 C 
ATOM     21  O   UNL     1      47.277   3.041  14.136  0.00  0.00    +0.000 OA
ATOM     22  H   UNL     1      46.993   5.330  16.301  0.00  0.00    +0.000 HD
BRANCH  20  23
ATOM     23  C   UNL     1      46.699   5.285  13.739  0.00  0.00    +0.000 A 
ATOM     24  C   UNL     1      45.540   5.250  12.976  0.00  0.00    +0.000 A 
ATOM     25  S   UNL     1      45.284   6.658  12.051  0.00  0.00    +0.000 S 
ATOM     26  C   UNL     1      46.743   7.348  12.600  0.00  0.00    +0.000 A 
ATOM     27  N   UNL     1      47.144   8.569  12.157  0.00  0.00    +0.000 NA
ATOM     28  C   UNL     1      48.282   8.957  12.627  0.00  0.00    +0.000 A 
ATOM     29  N   UNL     1      49.048   8.236  13.506  0.00  0.00    +0.000 N 
ATOM     30  C   UNL     1      48.665   7.014  14.006  0.00  0.00    +0.000 A 
ATOM     31  O   UNL     1      49.348   6.421  14.836  0.00  0.00    +0.000 OA
ATOM     32  C   UNL     1      47.400   6.524  13.492  0.00  0.00    +0.000 A 
ATOM     33  H   UNL     1      49.924   8.605  13.845  0.00  0.00    +0.000 HD
ENDBRANCH  20  23
ENDBRANCH  18  19
ENDBRANCH   4  18
TORSDOF 7
ENDMDL
MODEL 9
REMARK VINA RESULT:    -6.389      3.001      4.193
REMARK INTER + INTRA:          -9.981
REMARK INTER:                  -8.508
REMARK INTRA:                  -1.473
REMARK UNBOUND:                -0.978
REMARK  Name = 
REMARK  8 active torsions:
REMARK  status: ('A' for Active; 'I' for Inactive)
REMARK    1  A    between atoms: C_1  and  C_2
REMARK    2  A    between atoms: C_2  and  N_3
REMARK    3  A    between atoms: C_2  and  C_11
REMARK    4  A    between atoms: N_3  and  C_4
REMARK    5  A    between atoms: C_4  and  C_5
REMARK    6  A    between atoms: C_14  and  C_15
REMARK    7  A    between atoms: C_15  and  N_16
REMARK    8  A    between atoms: C_17  and  C_19
REMARK                            x       y       z     vdW  Elec       q    Type
REMARK                         _______ _______ _______ _____ _____    ______ ____
ROOT
ATOM      1  C   UNL     1      45.823   8.722  11.994  0.00  0.00    +0.000 A 
ATOM      2  C   UNL     1      46.297   7.402  12.118  0.00  0.00    +0.000 A 
ATOM      3  C   UNL     1      47.605   7.137  12.532  0.00  0.00    +0.000 A 
ATOM      4  C   UNL     1      48.461   8.185  12.884  0.00  0.00    +0.000 A 
ATOM      5  C   UNL     1      48.002   9.502  12.762  0.00  0.00    +0.000 A 
ATOM      6  C   UNL     1      46.701   9.767  12.315  0.00  0.00    +0.000 A 
ENDROOT
BRANCH   1   8
ATOM      7  C   UNL     1      44.300  10.244  10.621  0.00  0.00    +0.000 C 
ATOM      8  C   UNL     1      44.416   8.957  11.451  0.00  0.00    +0.000 C 
BRANCH   8   9
ATOM      9  N   UNL     1      43.920   7.830  10.633  0.00  0.00    +0.000 NA
ATOM     10  H   UNL     1      44.711   7.256  10.347  0.00  0.00    +0.000 HD
BRANCH   9  11
ATOM     11  C   UNL     1      42.967   6.993  11.364  0.00  0.00    +0.000 C 
BRANCH  11  12
ATOM     12  C   UNL     1      43.333   5.530  11.407  0.00  0.00    +0.000 A 
ATOM     13  C   UNL     1      43.177   4.825  12.608  0.00  0.00    +0.000 A 
ATOM     14  C   UNL     1      43.449   3.467  12.632  0.00  0.00    +0.000 A 
ATOM     15  N   UNL     1      43.857   2.770  11.553  0.00  0.00    +0.000 NA
ATOM     16  C   UNL     1      43.989   3.464  10.399  0.00  0.00    +0.000 A 
ATOM     17  C   UNL     1      43.737   4.821  10.274  0.00  0.00    +0.000 A 
ENDBRANCH  11  12
ENDBRANCH   9  11
ENDBRANCH   8   9
ENDBRANCH   1   8
BRANCH   4  18
ATOM     18  C   UNL     1      49.861   7.892  13.357  0.00  0.00    +0.000 C 
BRANCH  18  19
ATOM     19  N   UNL     1      49.854   6.941  14.441  0.00  0.00    +0.000 N 
ATOM     20  C   UNL     1      49.600   7.322  15.734  0.00  0.00    +0.000 C 
ATOM     21  O   UNL     1      49.292   8.474  16.026  0.00  0.00    +0.000 OA
ATOM     22  H   UNL     1      50.303   6.049  14.265  0.00  0.00    +0.000 HD
BRANCH  20  23
ATOM     23  C   UNL     1      49.650   6.266  16.751  0.00  0.00    +0.000 A 
ATOM     24  C   UNL     1      50.618   6.318  17.744  0.00  0.00    +0.000 A 
ATOM     25  S   UNL     1      50.520   5.037  18.865  0.00  0.00    +0.000 S 
ATOM     26  C   UNL     1      49.206   4.339  18.032  0.00  0.00    +0.000 A 
ATOM     27  N   UNL     1      48.649   3.177  18.464  0.00  0.00    +0.000 NA
ATOM     28  C   UNL     1      47.685   2.743  17.723  0.00  0.00    +0.000 A 
ATOM     29  N   UNL     1      47.226   3.372  16.595  0.00  0.00    +0.000 N 
ATOM     30  C   UNL     1      47.737   4.566  16.142  0.00  0.00    +0.000 A 
ATOM     31  O   UNL     1      47.264   5.131  15.161  0.00  0.00    +0.000 OA
ATOM     32  C   UNL     1      48.838   5.086  16.931  0.00  0.00    +0.000 A 
ATOM     33  H   UNL     1      46.457   2.984  16.068  0.00  0.00    +0.000 HD
ENDBRANCH  20  23
ENDBRANCH  18  19
ENDBRANCH   4  18
TORSDOF 7
ENDMDL
