MODEL 1
REMARK VINA RESULT:    -7.923      0.000      0.000
REMARK INTER + INTRA:         -12.063
REMARK INTER:                 -11.166
REMARK INTRA:                  -0.898
REMARK UNBOUND:                -0.898
REMARK  Name = 
REMARK  8 active torsions:
REMARK  status: ('A' for Active; 'I' for Inactive)
REMARK    1  A    between atoms: C_1  and  N_2
REMARK    2  A    between atoms: N_2  and  C_3
REMARK    3  A    between atoms: N_2  and  C_24
REMARK    4  A    between atoms: C_3  and  C_4
REMARK    5  A    between atoms: C_7  and  C_8
REMARK    6  A    between atoms: C_8  and  N_9
REMARK    7  A    between atoms: C_10  and  C_12
REMARK    8  A    between atoms: C_24  and  C_25
REMARK                            x       y       z     vdW  Elec       q    Type
REMARK                         _______ _______ _______ _____ _____    ______ ____
ROOT
ATOM      1  C   UNL     1      46.024   4.801  12.652  0.00  0.00    +0.000 A 
ATOM      2  C   UNL     1      46.426   4.335  13.914  0.00  0.00    +0.000 A 
ATOM      3  C   UNL     1      47.286   5.086  14.725  0.00  0.00    +0.000 A 
ATOM      4  C   UNL     1      47.772   6.326  14.293  0.00  0.00    +0.000 A 
ATOM      5  C   UNL     1      47.396   6.784  13.023  0.00  0.00    +0.000 A 
ATOM      6  C   UNL     1      46.521   6.037  12.218  0.00  0.00    +0.000 A 
ENDROOT
BRANCH   1   7
ATOM      7  C   UNL     1      45.146   3.942  11.756  0.00  0.00    +0.000 C 
BRANCH   7   9
ATOM      8  C   UNL     1      43.310   5.384  11.039  0.00  0.00    +0.000 C 
ATOM      9  N   UNL     1      44.479   4.609  10.610  0.00  0.00    +0.000 NA
BRANCH   9  10
ATOM     10  C   UNL     1      44.071   3.560   9.640  0.00  0.00    +0.000 C 
BRANCH  10  11
ATOM     11  C   UNL     1      45.187   3.029   8.771  0.00  0.00    +0.000 A 
ATOM     12  C   UNL     1      45.921   3.857   7.918  0.00  0.00    +0.000 A 
ATOM     13  C   UNL     1      46.928   3.314   7.123  0.00  0.00    +0.000 A 
ATOM     14  C   UNL     1      47.175   1.954   7.211  0.00  0.00    +0.000 A 
ATOM     15  N   UNL     1      46.500   1.121   8.030  0.00  0.00    +0.000 NA
ATOM     16  C   UNL     1      45.526   1.677   8.788  0.00  0.00    +0.000 A 
ENDBRANCH  10  11
ENDBRANCH   9  10
ENDBRANCH   7   9
ENDBRANCH   1   7
BRANCH   4  17
ATOM     17  C   UNL     1      48.704   7.131  15.165  0.00  0.00    +0.000 C 
BRANCH  17  18
ATOM     18  N   UNL     1      49.765   6.315  15.704  0.00  0.00    +0.000 N 
ATOM     19  C   UNL     1      49.735   5.871  17.003  0.00  0.00    +0.000 C 
ATOM     20  O   UNL     1      48.786   6.104  17.748  0.00  0.00    +0.000 OA
ATOM     21  H   UNL     1      50.637   6.292  15.186  0.00  0.00    +0.000 HD
BRANCH  19  22
ATOM     22  C   UNL     1      50.874   5.051  17.445  0.00  0.00    +0.000 A 
ATOM     23  C   UNL     1      52.018   5.670  17.932  0.00  0.00    +0.000 A 
ATOM     24  S   UNL     1      53.225   4.579  18.442  0.00  0.00    +0.000 S 
ATOM     25  C   UNL     1      52.281   3.239  17.984  0.00  0.00    +0.000 A 
ATOM     26  N   UNL     1      52.756   1.972  18.132  0.00  0.00    +0.000 NA
ATOM     27  C   UNL     1      51.954   1.050  17.716  0.00  0.00    +0.000 A 
ATOM     28  N   UNL     1      50.716   1.281  17.170  0.00  0.00    +0.000 N 
ATOM     29  C   UNL     1      50.183   2.544  17.033  0.00  0.00    +0.000 A 
ATOM     30  O   UNL     1      49.054   2.711  16.587  0.00  0.00    +0.000 OA
ATOM     31  C   UNL     1      51.059   3.615  17.471  0.00  0.00    +0.000 A 
ATOM     32  H   UNL     1      50.132   0.515  16.874  0.00  0.00    +0.000 HD
ENDBRANCH  19  22
ENDBRANCH  17  18
ENDBRANCH   4  17
TORSDOF 7
ENDMDL
MODEL 2
REMARK VINA RESULT:    -7.767      2.350      2.879
REMARK INTER + INTRA:         -11.843
REMARK INTER:                 -10.840
REMARK INTRA:                  -1.003
REMARK UNBOUND:                -0.898
REMARK  Name = 
REMARK  8 active torsions:
REMARK  status: ('A' for Active; 'I' for Inactive)
REMARK    1  A    between atoms: C_1  and  N_2
REMARK    2  A    between atoms: N_2  and  C_3
REMARK    3  A    between atoms: N_2  and  C_24
REMARK    4  A    between atoms: C_3  and  C_4
REMARK    5  A    between atoms: C_7  and  C_8
REMARK    6  A    between atoms: C_8  and  N_9
REMARK    7  A    between atoms: C_10  and  C_12
REMARK    8  A    between atoms: C_24  and  C_25
REMARK                            x       y       z     vdW  Elec       q    Type
REMARK                         _______ _______ _______ _____ _____    ______ ____
ROOT
ATOM      1  C   UNL     1      46.039   4.581  12.664  0.00  0.00    +0.000 A 
ATOM      2  C   UNL     1      46.316   5.759  11.952  0.00  0.00    +0.000 A 
ATOM      3  C   UNL     1      47.148   6.750  12.485  0.00  0.00    +0.000 A 
ATOM      4  C   UNL     1      47.726   6.592  13.751  0.00  0.00    +0.000 A 
ATOM      5  C   UNL     1      47.431   5.430  14.478  0.00  0.00    +0.000 A 
ATOM      6  C   UNL     1      46.609   4.430  13.935  0.00  0.00    +0.000 A 
ENDROOT
BRANCH   1   7
ATOM      7  C   UNL     1      45.077   3.546  12.101  0.00  0.00    +0.000 C 
BRANCH   7   9
ATOM      8  C   UNL     1      42.870   4.320  11.399  0.00  0.00    +0.000 C 
ATOM      9  N   UNL     1      44.222   3.957  10.959  0.00  0.00    +0.000 NA
BRANCH   9  10
ATOM     10  C   UNL     1      44.162   2.826   9.997  0.00  0.00    +0.000 C 
BRANCH  10  11
ATOM     11  C   UNL     1      45.210   2.861   8.910  0.00  0.00    +0.000 A 
ATOM     12  C   UNL     1      45.871   1.708   8.479  0.00  0.00    +0.000 A 
ATOM     13  C   UNL     1      46.843   1.797   7.486  0.00  0.00    +0.000 A 
ATOM     14  C   UNL     1      47.121   3.043   6.947  0.00  0.00    +0.000 A 
ATOM     15  N   UNL     1      46.499   4.178   7.325  0.00  0.00    +0.000 NA
ATOM     16  C   UNL     1      45.561   4.060   8.294  0.00  0.00    +0.000 A 
ENDBRANCH  10  11
ENDBRANCH   9  10
ENDBRANCH   7   9
ENDBRANCH   1   7
BRANCH   4  17
ATOM     17  C   UNL     1      48.618   7.664  14.327  0.00  0.00    +0.000 C 
BRANCH  17  18
ATOM     18  N   UNL     1      48.621   7.634  15.770  0.00  0.00    +0.000 N 
ATOM     19  C   UNL     1      49.610   6.986  16.468  0.00  0.00    +0.000 C 
ATOM     20  O   UNL     1      50.560   6.449  15.904  0.00  0.00    +0.000 OA
ATOM     21  H   UNL     1      47.755   7.878  16.238  0.00  0.00    +0.000 HD
BRANCH  19  22
ATOM     22  C   UNL     1      49.508   7.015  17.936  0.00  0.00    +0.000 A 
ATOM     23  C   UNL     1      49.776   8.195  18.618  0.00  0.00    +0.000 A 
ATOM     24  S   UNL     1      49.570   8.073  20.307  0.00  0.00    +0.000 S 
ATOM     25  C   UNL     1      49.164   6.425  20.191  0.00  0.00    +0.000 A 
ATOM     26  N   UNL     1      48.891   5.696  21.308  0.00  0.00    +0.000 NA
ATOM     27  C   UNL     1      48.630   4.453  21.083  0.00  0.00    +0.000 A 
ATOM     28  N   UNL     1      48.611   3.872  19.839  0.00  0.00    +0.000 N 
ATOM     29  C   UNL     1      48.846   4.578  18.680  0.00  0.00    +0.000 A 
ATOM     30  O   UNL     1      48.772   4.039  17.582  0.00  0.00    +0.000 OA
ATOM     31  C   UNL     1      49.164   5.980  18.887  0.00  0.00    +0.000 A 
ATOM     32  H   UNL     1      48.388   2.895  19.730  0.00  0.00    +0.000 HD
ENDBRANCH  19  22
ENDBRANCH  17  18
ENDBRANCH   4  17
TORSDOF 7
ENDMDL
MODEL 3
REMARK VINA RESULT:    -7.478      3.699      8.716
REMARK INTER + INTRA:         -11.436
REMARK INTER:                  -9.784
REMARK INTRA:                  -1.652
REMARK UNBOUND:                -0.898
REMARK  Name = 
REMARK  8 active torsions:
REMARK  status: ('A' for Active; 'I' for Inactive)
REMARK    1  A    between atoms: C_1  and  N_2
REMARK    2  A    between atoms: N_2  and  C_3
REMARK    3  A    between atoms: N_2  and  C_24
REMARK    4  A    between atoms: C_3  and  C_4
REMARK    5  A    between atoms: C_7  and  C_8
REMARK    6  A    between atoms: C_8  and  N_9
REMARK    7  A    between atoms: C_10  and  C_12
REMARK    8  A    between atoms: C_24  and  C_25
REMARK                            x       y       z     vdW  Elec       q    Type
REMARK                         _______ _______ _______ _____ _____    ______ ____
ROOT
ATOM      1  C   UNL     1      49.006   8.020  16.198  0.00  0.00    +0.000 A 
ATOM      2  C   UNL     1      49.453   6.976  15.373  0.00  0.00    +0.000 A 
ATOM      3  C   UNL     1      49.060   6.891  14.033  0.00  0.00    +0.000 A 
ATOM      4  C   UNL     1      48.202   7.849  13.479  0.00  0.00    +0.000 A 
ATOM      5  C   UNL     1      47.730   8.878  14.304  0.00  0.00    +0.000 A 
ATOM      6  C   UNL     1      48.138   8.972  15.644  0.00  0.00    +0.000 A 
ENDROOT
BRANCH   1   7
ATOM      7  C   UNL     1      49.387   8.059  17.670  0.00  0.00    +0.000 C 
BRANCH   7   9
ATOM      8  C   UNL     1      48.152   8.465  19.737  0.00  0.00    +0.000 C 
ATOM      9  N   UNL     1      48.407   7.519  18.645  0.00  0.00    +0.000 NA
BRANCH   9  10
ATOM     10  C   UNL     1      48.950   6.245  19.186  0.00  0.00    +0.000 C 
BRANCH  10  11
ATOM     11  C   UNL     1      48.575   5.011  18.400  0.00  0.00    +0.000 A 
ATOM     12  C   UNL     1      49.518   4.045  18.042  0.00  0.00    +0.000 A 
ATOM     13  C   UNL     1      49.124   2.933  17.300  0.00  0.00    +0.000 A 
ATOM     14  C   UNL     1      47.791   2.820  16.942  0.00  0.00    +0.000 A 
ATOM     15  N   UNL     1      46.846   3.723  17.276  0.00  0.00    +0.000 NA
ATOM     16  C   UNL     1      47.259   4.793  17.995  0.00  0.00    +0.000 A 
ENDBRANCH  10  11
ENDBRANCH   9  10
ENDBRANCH   7   9
ENDBRANCH   1   7
BRANCH   4  17
ATOM     17  C   UNL     1      47.773   7.752  12.035  0.00  0.00    +0.000 C 
BRANCH  17  18
ATOM     18  N   UNL     1      47.039   6.537  11.779  0.00  0.00    +0.000 N 
ATOM     19  C   UNL     1      45.678   6.474  11.956  0.00  0.00    +0.000 C 
ATOM     20  O   UNL     1      45.019   7.456  12.287  0.00  0.00    +0.000 OA
ATOM     21  H   UNL     1      47.576   5.679  11.715  0.00  0.00    +0.000 HD
BRANCH  19  22
ATOM     22  C   UNL     1      45.036   5.181  11.670  0.00  0.00    +0.000 A 
ATOM     23  C   UNL     1      44.340   4.524  12.677  0.00  0.00    +0.000 A 
ATOM     24  S   UNL     1      43.620   3.063  12.172  0.00  0.00    +0.000 S 
ATOM     25  C   UNL     1      44.255   3.230  10.603  0.00  0.00    +0.000 A 
ATOM     26  N   UNL     1      44.030   2.279   9.656  0.00  0.00    +0.000 NA
ATOM     27  C   UNL     1      44.596   2.512   8.520  0.00  0.00    +0.000 A 
ATOM     28  N   UNL     1      45.363   3.616   8.242  0.00  0.00    +0.000 N 
ATOM     29  C   UNL     1      45.588   4.620   9.158  0.00  0.00    +0.000 A 
ATOM     30  O   UNL     1      46.237   5.616   8.861  0.00  0.00    +0.000 OA
ATOM     31  C   UNL     1      44.986   4.390  10.459  0.00  0.00    +0.000 A 
ATOM     32  H   UNL     1      45.768   3.745   7.328  0.00  0.00    +0.000 HD
ENDBRANCH  19  22
ENDBRANCH  17  18
ENDBRANCH   4  17
TORSDOF 7
ENDMDL
MODEL 4
REMARK VINA RESULT:    -7.309      3.755      8.406
REMARK INTER + INTRA:         -11.198
REMARK INTER:                  -9.624
REMARK INTRA:                  -1.574
REMARK UNBOUND:                -0.898
REMARK  Name = 
REMARK  8 active torsions:
REMARK  status: ('A' for Active; 'I' for Inactive)
REMARK    1  A    between atoms: C_1  and  N_2
REMARK    2  A    between atoms: N_2  and  C_3
REMARK    3  A    between atoms: N_2  and  C_24
REMARK    4  A    between atoms: C_3  and  C_4
REMARK    5  A    between atoms: C_7  and  C_8
REMARK    6  A    between atoms: C_8  and  N_9
REMARK    7  A    between atoms: C_10  and  C_12
REMARK    8  A    between atoms: C_24  and  C_25
REMARK                            x       y       z     vdW  Elec       q    Type
REMARK                         _______ _______ _______ _____ _____    ______ ____
ROOT
ATOM      1  C   UNL     1      48.873   7.712  16.368  0.00  0.00    +0.000 A 
ATOM      2  C   UNL     1      48.965   6.632  15.476  0.00  0.00    +0.000 A 
ATOM      3  C   UNL     1      48.739   6.802  14.105  0.00  0.00    +0.000 A 
ATOM      4  C   UNL     1      48.410   8.061  13.587  0.00  0.00    +0.000 A 
ATOM      5  C   UNL     1      48.291   9.137  14.475  0.00  0.00    +0.000 A 
ATOM      6  C   UNL     1      48.534   8.969  15.848  0.00  0.00    +0.000 A 
ENDROOT
BRANCH   1   7
ATOM      7  C   UNL     1      49.054   7.497  17.862  0.00  0.00    +0.000 C 
BRANCH   7   9
ATOM      8  C   UNL     1      47.485   8.080  19.641  0.00  0.00    +0.000 C 
ATOM      9  N   UNL     1      47.863   7.075  18.642  0.00  0.00    +0.000 NA
BRANCH   9  10
ATOM     10  C   UNL     1      48.181   5.784  19.306  0.00  0.00    +0.000 C 
BRANCH  10  11
ATOM     11  C   UNL     1      48.304   4.603  18.374  0.00  0.00    +0.000 A 
ATOM     12  C   UNL     1      49.488   3.871  18.256  0.00  0.00    +0.000 A 
ATOM     13  C   UNL     1      49.556   2.800  17.367  0.00  0.00    +0.000 A 
ATOM     14  C   UNL     1      48.428   2.491  16.623  0.00  0.00    +0.000 A 
ATOM     15  N   UNL     1      47.262   3.163  16.714  0.00  0.00    +0.000 NA
ATOM     16  C   UNL     1      47.229   4.199  17.585  0.00  0.00    +0.000 A 
ENDBRANCH  10  11
ENDBRANCH   9  10
ENDBRANCH   7   9
ENDBRANCH   1   7
BRANCH   4  17
ATOM     17  C   UNL     1      48.160   8.241  12.109  0.00  0.00    +0.000 C 
BRANCH  17  18
ATOM     18  N   UNL     1      47.507   7.088  11.537  0.00  0.00    +0.000 N 
ATOM     19  C   UNL     1      46.142   7.039  11.394  0.00  0.00    +0.000 C 
ATOM     20  O   UNL     1      45.421   7.987  11.697  0.00  0.00    +0.000 OA
ATOM     21  H   UNL     1      48.048   6.232  11.481  0.00  0.00    +0.000 HD
BRANCH  19  22
ATOM     22  C   UNL     1      45.585   5.811  10.803  0.00  0.00    +0.000 A 
ATOM     23  C   UNL     1      45.777   5.553   9.452  0.00  0.00    +0.000 A 
ATOM     24  S   UNL     1      45.109   4.071   8.936  0.00  0.00    +0.000 S 
ATOM     25  C   UNL     1      44.495   3.746  10.489  0.00  0.00    +0.000 A 
ATOM     26  N   UNL     1      43.775   2.616  10.729  0.00  0.00    +0.000 NA
ATOM     27  C   UNL     1      43.341   2.507  11.940  0.00  0.00    +0.000 A 
ATOM     28  N   UNL     1      43.567   3.425  12.935  0.00  0.00    +0.000 N 
ATOM     29  C   UNL     1      44.318   4.564  12.745  0.00  0.00    +0.000 A 
ATOM     30  O   UNL     1      44.542   5.338  13.669  0.00  0.00    +0.000 OA
ATOM     31  C   UNL     1      44.812   4.738  11.391  0.00  0.00    +0.000 A 
ATOM     32  H   UNL     1      43.209   3.276  13.865  0.00  0.00    +0.000 HD
ENDBRANCH  19  22
ENDBRANCH  17  18
ENDBRANCH   4  17
TORSDOF 7
ENDMDL
MODEL 5
REMARK VINA RESULT:    -7.138      3.623      9.660
REMARK INTER + INTRA:         -10.957
REMARK INTER:                  -9.881
REMARK INTRA:                  -1.076
REMARK UNBOUND:                -0.898
REMARK  Name = 
REMARK  8 active torsions:
REMARK  status: ('A' for Active; 'I' for Inactive)
REMARK    1  A    between atoms: C_1  and  N_2
REMARK    2  A    between atoms: N_2  and  C_3
REMARK    3  A    between atoms: N_2  and  C_24
REMARK    4  A    between atoms: C_3  and  C_4
REMARK    5  A    between atoms: C_7  and  C_8
REMARK    6  A    between atoms: C_8  and  N_9
REMARK    7  A    between atoms: C_10  and  C_12
REMARK    8  A    between atoms: C_24  and  C_25
REMARK                            x       y       z     vdW  Elec       q    Type
REMARK                         _______ _______ _______ _____ _____    ______ ____
ROOT
ATOM      1  C   UNL     1      51.576   3.764  17.749  0.00  0.00    +0.000 A 
ATOM      2  C   UNL     1      51.006   2.518  17.443  0.00  0.00    +0.000 A 
ATOM      3  C   UNL     1      49.642   2.397  17.150  0.00  0.00    +0.000 A 
ATOM      4  C   UNL     1      48.808   3.521  17.158  0.00  0.00    +0.000 A 
ATOM      5  C   UNL     1      49.366   4.763  17.489  0.00  0.00    +0.000 A 
ATOM      6  C   UNL     1      50.737   4.886  17.767  0.00  0.00    +0.000 A 
ENDROOT
BRANCH   1   7
ATOM      7  C   UNL     1      53.044   3.867  18.132  0.00  0.00    +0.000 C 
BRANCH   7   9
ATOM      8  C   UNL     1      53.646   3.580  20.481  0.00  0.00    +0.000 C 
ATOM      9  N   UNL     1      53.548   2.932  19.169  0.00  0.00    +0.000 NA
BRANCH   9  10
ATOM     10  C   UNL     1      54.883   2.442  18.738  0.00  0.00    +0.000 C 
BRANCH  10  11
ATOM     11  C   UNL     1      54.883   1.063  18.120  0.00  0.00    +0.000 A 
ATOM     12  C   UNL     1      54.865   0.871  16.736  0.00  0.00    +0.000 A 
ATOM     13  C   UNL     1      54.848  -0.422  16.217  0.00  0.00    +0.000 A 
ATOM     14  C   UNL     1      54.854  -1.487  17.103  0.00  0.00    +0.000 A 
ATOM     15  N   UNL     1      54.884  -1.346  18.444  0.00  0.00    +0.000 NA
ATOM     16  C   UNL     1      54.898  -0.079  18.919  0.00  0.00    +0.000 A 
ENDBRANCH  10  11
ENDBRANCH   9  10
ENDBRANCH   7   9
ENDBRANCH   1   7
BRANCH   4  17
ATOM     17  C   UNL     1      47.337   3.388  16.849  0.00  0.00    +0.000 C 
BRANCH  17  18
ATOM     18  N   UNL     1      46.902   4.382  15.897  0.00  0.00    +0.000 N 
ATOM     19  C   UNL     1      46.944   4.143  14.545  0.00  0.00    +0.000 C 
ATOM     20  O   UNL     1      47.303   3.061  14.087  0.00  0.00    +0.000 OA
ATOM     21  H   UNL     1      46.809   5.334  16.235  0.00  0.00    +0.000 HD
BRANCH  19  22
ATOM     22  C   UNL     1      46.481   5.232  13.670  0.00  0.00    +0.000 A 
ATOM     23  C   UNL     1      47.292   6.341  13.467  0.00  0.00    +0.000 A 
ATOM     24  S   UNL     1      46.630   7.488  12.393  0.00  0.00    +0.000 S 
ATOM     25  C   UNL     1      45.213   6.567  12.199  0.00  0.00    +0.000 A 
ATOM     26  N   UNL     1      44.198   7.010  11.408  0.00  0.00    +0.000 NA
ATOM     27  C   UNL     1      43.169   6.232  11.374  0.00  0.00    +0.000 A 
ATOM     28  N   UNL     1      43.065   5.046  12.056  0.00  0.00    +0.000 N 
ATOM     29  C   UNL     1      44.080   4.542  12.840  0.00  0.00    +0.000 A 
ATOM     30  O   UNL     1      43.973   3.455  13.395  0.00  0.00    +0.000 OA
ATOM     31  C   UNL     1      45.252   5.394  12.923  0.00  0.00    +0.000 A 
ATOM     32  H   UNL     1      42.236   4.477  11.978  0.00  0.00    +0.000 HD
ENDBRANCH  19  22
ENDBRANCH  17  18
ENDBRANCH   4  17
TORSDOF 7
ENDMDL
MODEL 6
REMARK VINA RESULT:    -6.842      2.204      2.455
REMARK INTER + INTRA:         -10.540
REMARK INTER:                 -11.096
REMARK INTRA:                   0.556
REMARK UNBOUND:                -0.898
REMARK  Name = 
REMARK  8 active torsions:
REMARK  status: ('A' for Active; 'I' for Inactive)
REMARK    1  A    between atoms: C_1  and  N_2
REMARK    2  A    between atoms: N_2  and  C_3
REMARK    3  A    between atoms: N_2  and  C_24
REMARK    4  A    between atoms: C_3  and  C_4
REMARK    5  A    between atoms: C_7  and  C_8
REMARK    6  A    between atoms: C_8  and  N_9
REMARK    7  A    between atoms: C_10  and  C_12
REMARK    8  A    between atoms: C_24  and  C_25
REMARK                            x       y       z     vdW  Elec       q    Type
REMARK                         _______ _______ _______ _____ _____    ______ ____
ROOT
ATOM      1  C   UNL     1      44.611   5.665  11.589  0.00  0.00    +0.000 A 
ATOM      2  C   UNL     1      45.275   5.107  12.693  0.00  0.00    +0.000 A 
ATOM      3  C   UNL     1      46.308   5.794  13.342  0.00  0.00    +0.000 A 
ATOM      4  C   UNL     1      46.710   7.061  12.901  0.00  0.00    +0.000 A 
ATOM      5  C   UNL     1      46.069   7.612  11.783  0.00  0.00    +0.000 A 
ATOM      6  C   UNL     1      45.022   6.929  11.143  0.00  0.00    +0.000 A 
ENDROOT
BRANCH   1   7
ATOM      7  C   UNL     1      43.539   4.877  10.853  0.00  0.00    +0.000 C 
BRANCH   7   9
ATOM      8  C   UNL     1      45.006   2.926  10.903  0.00  0.00    +0.000 C 
ATOM      9  N   UNL     1      43.958   3.634  10.160  0.00  0.00    +0.000 NA
BRANCH   9  10
ATOM     10  C   UNL     1      44.449   4.003   8.807  0.00  0.00    +0.000 C 
BRANCH  10  11
ATOM     11  C   UNL     1      45.505   3.083   8.241  0.00  0.00    +0.000 A 
ATOM     12  C   UNL     1      46.534   3.551   7.420  0.00  0.00    +0.000 A 
ATOM     13  C   UNL     1      47.472   2.657   6.908  0.00  0.00    +0.000 A 
ATOM     14  C   UNL     1      47.354   1.317   7.240  0.00  0.00    +0.000 A 
ATOM     15  N   UNL     1      46.385   0.826   8.039  0.00  0.00    +0.000 NA
ATOM     16  C   UNL     1      45.487   1.718   8.519  0.00  0.00    +0.000 A 
ENDBRANCH  10  11
ENDBRANCH   9  10
ENDBRANCH   7   9
ENDBRANCH   1   7
BRANCH   4  17
ATOM     17  C   UNL     1      47.828   7.797  13.597  0.00  0.00    +0.000 C 
BRANCH  17  18
ATOM     18  N   UNL     1      48.031   7.308  14.939  0.00  0.00    +0.000 N 
ATOM     19  C   UNL     1      49.289   7.217  15.483  0.00  0.00    +0.000 C 
ATOM     20  O   UNL     1      50.289   7.595  14.877  0.00  0.00    +0.000 OA
ATOM     21  H   UNL     1      47.263   6.803  15.367  0.00  0.00    +0.000 HD
BRANCH  19  22
ATOM     22  C   UNL     1      49.376   6.699  16.857  0.00  0.00    +0.000 A 
ATOM     23  C   UNL     1      49.964   7.475  17.847  0.00  0.00    +0.000 A 
ATOM     24  S   UNL     1      49.947   6.748  19.390  0.00  0.00    +0.000 S 
ATOM     25  C   UNL     1      49.198   5.348  18.780  0.00  0.00    +0.000 A 
ATOM     26  N   UNL     1      48.921   4.296  19.598  0.00  0.00    +0.000 NA
ATOM     27  C   UNL     1      48.383   3.285  19.002  0.00  0.00    +0.000 A 
ATOM     28  N   UNL     1      48.092   3.233  17.662  0.00  0.00    +0.000 N 
ATOM     29  C   UNL     1      48.323   4.286  16.805  0.00  0.00    +0.000 A 
ATOM     30  O   UNL     1      48.005   4.225  15.623  0.00  0.00    +0.000 OA
ATOM     31  C   UNL     1      48.946   5.440  17.428  0.00  0.00    +0.000 A 
ATOM     32  H   UNL     1      47.660   2.416  17.260  0.00  0.00    +0.000 HD
ENDBRANCH  19  22
ENDBRANCH  17  18
ENDBRANCH   4  17
TORSDOF 7
ENDMDL
MODEL 7
REMARK VINA RESULT:    -6.680      2.700      3.784
REMARK INTER + INTRA:         -10.311
REMARK INTER:                 -11.358
REMARK INTRA:                   1.047
REMARK UNBOUND:                -0.898
REMARK  Name = 
REMARK  8 active torsions:
REMARK  status: ('A' for Active; 'I' for Inactive)
REMARK    1  A    between atoms: C_1  and  N_2
REMARK    2  A    between atoms: N_2  and  C_3
REMARK    3  A    between atoms: N_2  and  C_24
REMARK    4  A    between atoms: C_3  and  C_4
REMARK    5  A    between atoms: C_7  and  C_8
REMARK    6  A    between atoms: C_8  and  N_9
REMARK    7  A    between atoms: C_10  and  C_12
REMARK    8  A    between atoms: C_24  and  C_25
REMARK                            x       y       z     vdW  Elec       q    Type
REMARK                         _______ _______ _______ _____ _____    ______ ____
ROOT
ATOM      1  C   UNL     1      44.769   5.406  11.483  0.00  0.00    +0.000 A 
ATOM      2  C   UNL     1      45.306   4.657  12.543  0.00  0.00    +0.000 A 
ATOM      3  C   UNL     1      46.397   5.129  13.283  0.00  0.00    +0.000 A 
ATOM      4  C   UNL     1      46.985   6.363  12.981  0.00  0.00    +0.000 A 
ATOM      5  C   UNL     1      46.470   7.102  11.907  0.00  0.00    +0.000 A 
ATOM      6  C   UNL     1      45.366   6.636  11.176  0.00  0.00    +0.000 A 
ENDROOT
BRANCH   1   7
ATOM      7  C   UNL     1      43.629   4.848  10.645  0.00  0.00    +0.000 C 
BRANCH   7   9
ATOM      8  C   UNL     1      44.365   2.536  10.370  0.00  0.00    +0.000 C 
ATOM      9  N   UNL     1      43.952   3.765   9.683  0.00  0.00    +0.000 NA
BRANCH   9  10
ATOM     10  C   UNL     1      45.041   4.247   8.795  0.00  0.00    +0.000 C 
BRANCH  10  11
ATOM     11  C   UNL     1      45.830   3.157   8.108  0.00  0.00    +0.000 A 
ATOM     12  C   UNL     1      46.643   3.415   7.002  0.00  0.00    +0.000 A 
ATOM     13  C   UNL     1      47.335   2.371   6.393  0.00  0.00    +0.000 A 
ATOM     14  C   UNL     1      47.196   1.095   6.916  0.00  0.00    +0.000 A 
ATOM     15  N   UNL     1      46.431   0.805   7.989  0.00  0.00    +0.000 NA
ATOM     16  C   UNL     1      45.769   1.840   8.557  0.00  0.00    +0.000 A 
ENDBRANCH  10  11
ENDBRANCH   9  10
ENDBRANCH   7   9
ENDBRANCH   1   7
BRANCH   4  17
ATOM     17  C   UNL     1      48.165   6.867  13.775  0.00  0.00    +0.000 C 
BRANCH  17  18
ATOM     18  N   UNL     1      48.016   6.587  15.183  0.00  0.00    +0.000 N 
ATOM     19  C   UNL     1      49.108   6.384  15.991  0.00  0.00    +0.000 C 
ATOM     20  O   UNL     1      50.257   6.483  15.567  0.00  0.00    +0.000 OA
ATOM     21  H   UNL     1      47.097   6.296  15.500  0.00  0.00    +0.000 HD
BRANCH  19  22
ATOM     22  C   UNL     1      48.835   6.101  17.409  0.00  0.00    +0.000 A 
ATOM     23  C   UNL     1      49.056   4.824  17.907  0.00  0.00    +0.000 A 
ATOM     24  S   UNL     1      48.733   4.673  19.575  0.00  0.00    +0.000 S 
ATOM     25  C   UNL     1      48.238   6.297  19.680  0.00  0.00    +0.000 A 
ATOM     26  N   UNL     1      47.799   6.815  20.859  0.00  0.00    +0.000 NA
ATOM     27  C   UNL     1      47.423   8.048  20.793  0.00  0.00    +0.000 A 
ATOM     28  N   UNL     1      47.452   8.812  19.654  0.00  0.00    +0.000 N 
ATOM     29  C   UNL     1      47.920   8.340  18.448  0.00  0.00    +0.000 A 
ATOM     30  O   UNL     1      47.979   9.065  17.462  0.00  0.00    +0.000 OA
ATOM     31  C   UNL     1      48.337   6.950  18.470  0.00  0.00    +0.000 A 
ATOM     32  H   UNL     1      47.154   9.775  19.672  0.00  0.00    +0.000 HD
ENDBRANCH  19  22
ENDBRANCH  17  18
ENDBRANCH   4  17
TORSDOF 7
ENDMDL
MODEL 8
REMARK VINA RESULT:    -6.612      3.704      8.252
REMARK INTER + INTRA:         -10.216
REMARK INTER:                  -8.163
REMARK INTRA:                  -2.053
REMARK UNBOUND:                -0.898
REMARK  Name = 
REMARK  8 active torsions:
REMARK  status: ('A' for Active; 'I' for Inactive)
REMARK    1  A    between atoms: C_1  and  N_2
REMARK    2  A    between atoms: N_2  and  C_3
REMARK    3  A    between atoms: N_2  and  C_24
REMARK    4  A    between atoms: C_3  and  C_4
REMARK    5  A    between atoms: C_7  and  C_8
REMARK    6  A    between atoms: C_8  and  N_9
REMARK    7  A    between atoms: C_10  and  C_12
REMARK    8  A    between atoms: C_24  and  C_25
REMARK                            x       y       z     vdW  Elec       q    Type
REMARK                         _______ _______ _______ _____ _____    ______ ____
ROOT
ATOM      1  C   UNL     1      50.079   8.015  16.965  0.00  0.00    +0.000 A 
ATOM      2  C   UNL     1      50.499   7.245  15.869  0.00  0.00    +0.000 A 
ATOM      3  C   UNL     1      50.032   7.509  14.576  0.00  0.00    +0.000 A 
ATOM      4  C   UNL     1      49.128   8.553  14.343  0.00  0.00    +0.000 A 
ATOM      5  C   UNL     1      48.685   9.308  15.437  0.00  0.00    +0.000 A 
ATOM      6  C   UNL     1      49.165   9.052  16.731  0.00  0.00    +0.000 A 
ENDROOT
BRANCH   1   7
ATOM      7  C   UNL     1      50.541   7.671  18.372  0.00  0.00    +0.000 C 
BRANCH   7   9
ATOM      8  C   UNL     1      49.581   7.391  20.600  0.00  0.00    +0.000 C 
ATOM      9  N   UNL     1      49.614   6.884  19.224  0.00  0.00    +0.000 NA
BRANCH   9  10
ATOM     10  C   UNL     1      50.064   5.468  19.209  0.00  0.00    +0.000 C 
BRANCH  10  11
ATOM     11  C   UNL     1      49.329   4.578  18.236  0.00  0.00    +0.000 A 
ATOM     12  C   UNL     1      47.965   4.733  17.973  0.00  0.00    +0.000 A 
ATOM     13  C   UNL     1      47.329   3.873  17.080  0.00  0.00    +0.000 A 
ATOM     14  C   UNL     1      48.083   2.883  16.470  0.00  0.00    +0.000 A 
ATOM     15  N   UNL     1      49.403   2.706  16.686  0.00  0.00    +0.000 NA
ATOM     16  C   UNL     1      49.992   3.555  17.560  0.00  0.00    +0.000 A 
ENDBRANCH  10  11
ENDBRANCH   9  10
ENDBRANCH   7   9
ENDBRANCH   1   7
BRANCH   4  17
ATOM     17  C   UNL     1      48.621   8.832  12.949  0.00  0.00    +0.000 C 
BRANCH  17  18
ATOM     18  N   UNL     1      47.666   7.838  12.522  0.00  0.00    +0.000 N 
ATOM     19  C   UNL     1      46.322   7.993  12.757  0.00  0.00    +0.000 C 
ATOM     20  O   UNL     1      45.866   9.001  13.292  0.00  0.00    +0.000 OA
ATOM     21  H   UNL     1      48.030   6.924  12.278  0.00  0.00    +0.000 HD
BRANCH  19  22
ATOM     22  C   UNL     1      45.442   6.913  12.282  0.00  0.00    +0.000 A 
ATOM     23  C   UNL     1      44.318   7.226  11.528  0.00  0.00    +0.000 A 
ATOM     24  S   UNL     1      43.431   5.861  11.020  0.00  0.00    +0.000 S 
ATOM     25  C   UNL     1      44.488   4.805  11.833  0.00  0.00    +0.000 A 
ATOM     26  N   UNL     1      44.274   3.461  11.822  0.00  0.00    +0.000 NA
ATOM     27  C   UNL     1      45.130   2.778  12.504  0.00  0.00    +0.000 A 
ATOM     28  N   UNL     1      46.188   3.318  13.192  0.00  0.00    +0.000 N 
ATOM     29  C   UNL     1      46.463   4.668  13.202  0.00  0.00    +0.000 A 
ATOM     30  O   UNL     1      47.445   5.111  13.787  0.00  0.00    +0.000 OA
ATOM     31  C   UNL     1      45.513   5.479  12.463  0.00  0.00    +0.000 A 
ATOM     32  H   UNL     1      46.829   2.727  13.698  0.00  0.00    +0.000 HD
ENDBRANCH  19  22
ENDBRANCH  17  18
ENDBRANCH   4  17
TORSDOF 7
ENDMDL
MODEL 9
REMARK VINA RESULT:    -6.444      4.112     10.095
REMARK INTER + INTRA:          -9.979
REMARK INTER:                  -8.772
REMARK INTRA:                  -1.206
REMARK UNBOUND:                -0.898
REMARK  Name = 
REMARK  8 active torsions:
REMARK  status: ('A' for Active; 'I' for Inactive)
REMARK    1  A    between atoms: C_1  and  N_2
REMARK    2  A    between atoms: N_2  and  C_3
REMARK    3  A    between atoms: N_2  and  C_24
REMARK    4  A    between atoms: C_3  and  C_4
REMARK    5  A    between atoms: C_7  and  C_8
REMARK    6  A    between atoms: C_8  and  N_9
REMARK    7  A    between atoms: C_10  and  C_12
REMARK    8  A    between atoms: C_24  and  C_25
REMARK                            x       y       z     vdW  Elec       q    Type
REMARK                         _______ _______ _______ _____ _____    ______ ____
ROOT
ATOM      1  C   UNL     1      49.945   5.649  19.456  0.00  0.00    +0.000 A 
ATOM      2  C   UNL     1      50.040   5.998  18.099  0.00  0.00    +0.000 A 
ATOM      3  C   UNL     1      49.281   5.337  17.126  0.00  0.00    +0.000 A 
ATOM      4  C   UNL     1      48.406   4.304  17.483  0.00  0.00    +0.000 A 
ATOM      5  C   UNL     1      48.328   3.933  18.831  0.00  0.00    +0.000 A 
ATOM      6  C   UNL     1      49.077   4.607  19.809  0.00  0.00    +0.000 A 
ENDROOT
BRANCH   1   7
ATOM      7  C   UNL     1      50.827   6.330  20.491  0.00  0.00    +0.000 C 
BRANCH   7   9
ATOM      8  C   UNL     1      52.943   7.534  20.311  0.00  0.00    +0.000 C 
ATOM      9  N   UNL     1      51.493   7.596  20.096  0.00  0.00    +0.000 NA
BRANCH   9  10
ATOM     10  C   UNL     1      50.902   8.698  20.899  0.00  0.00    +0.000 C 
BRANCH  10  11
ATOM     11  C   UNL     1      49.475   9.045  20.547  0.00  0.00    +0.000 A 
ATOM     12  C   UNL     1      48.432   8.921  21.468  0.00  0.00    +0.000 A 
ATOM     13  C   UNL     1      47.130   9.236  21.087  0.00  0.00    +0.000 A 
ATOM     14  C   UNL     1      46.911   9.674  19.791  0.00  0.00    +0.000 A 
ATOM     15  N   UNL     1      47.890   9.820  18.874  0.00  0.00    +0.000 NA
ATOM     16  C   UNL     1      49.144   9.503  19.273  0.00  0.00    +0.000 A 
ENDBRANCH  10  11
ENDBRANCH   9  10
ENDBRANCH   7   9
ENDBRANCH   1   7
BRANCH   4  17
ATOM     17  C   UNL     1      47.594   3.588  16.431  0.00  0.00    +0.000 C 
BRANCH  17  18
ATOM     18  N   UNL     1      46.937   4.517  15.544  0.00  0.00    +0.000 N 
ATOM     19  C   UNL     1      46.790   4.244  14.206  0.00  0.00    +0.000 C 
ATOM     20  O   UNL     1      47.162   3.182  13.714  0.00  0.00    +0.000 OA
ATOM     21  H   UNL     1      46.818   5.467  15.878  0.00  0.00    +0.000 HD
BRANCH  19  22
ATOM     22  C   UNL     1      46.109   5.267  13.396  0.00  0.00    +0.000 A 
ATOM     23  C   UNL     1      46.739   6.481  13.153  0.00  0.00    +0.000 A 
ATOM     24  S   UNL     1      45.836   7.537  12.164  0.00  0.00    +0.000 S 
ATOM     25  C   UNL     1      44.548   6.429  12.067  0.00  0.00    +0.000 A 
ATOM     26  N   UNL     1      43.419   6.736  11.372  0.00  0.00    +0.000 NA
ATOM     27  C   UNL     1      42.507   5.822  11.406  0.00  0.00    +0.000 A 
ATOM     28  N   UNL     1      42.626   4.626  12.067  0.00  0.00    +0.000 N 
ATOM     29  C   UNL     1      43.763   4.260  12.752  0.00  0.00    +0.000 A 
ATOM     30  O   UNL     1      43.855   3.162  13.290  0.00  0.00    +0.000 OA
ATOM     31  C   UNL     1      44.810   5.266  12.758  0.00  0.00    +0.000 A 
ATOM     32  H   UNL     1      41.880   3.948  12.045  0.00  0.00    +0.000 HD
ENDBRANCH  19  22
ENDBRANCH  17  18
ENDBRANCH   4  17
TORSDOF 7
ENDMDL
