MODEL 1
REMARK VINA RESULT:    -7.625      0.000      0.000
REMARK INTER + INTRA:         -11.374
REMARK INTER:                 -10.746
REMARK INTRA:                  -0.628
REMARK UNBOUND:                -0.628
REMARK  Name = 
REMARK  9 active torsions:
REMARK  status: ('A' for Active; 'I' for Inactive)
REMARK    1  A    between atoms: C_1  and  N_2
REMARK    2  A    between atoms: N_2  and  C_3
REMARK    3  A    between atoms: N_2  and  C_4
REMARK    4  A    between atoms: C_4  and  C_5
REMARK    5  A    between atoms: C_4  and  C_19
REMARK    6  A    between atoms: C_5  and  C_6
REMARK    7  A    between atoms: C_9  and  C_10
REMARK    8  A    between atoms: C_10  and  N_11
REMARK    9  A    between atoms: C_19  and  C_21
REMARK                            x       y       z     vdW  Elec       q    Type
REMARK                         _______ _______ _______ _____ _____    ______ ____
ROOT
ATOM      1  C   UNL     1      47.278   7.811  13.270  0.00  0.00    +0.000 C 
ENDROOT
BRANCH   1   3
ATOM      2  C   UNL     1      47.116   9.773  11.793  0.00  0.00    +0.000 C 
ATOM      3  N   UNL     1      47.758   8.466  12.002  0.00  0.00    +0.000 NA
ATOM      4  C   UNL     1      49.213   8.670  12.018  0.00  0.00    +0.000 C 
ENDBRANCH   1   3
BRANCH   1   5
ATOM      5  C   UNL     1      48.094   6.561  13.668  0.00  0.00    +0.000 C 
ATOM      6  O   UNL     1      48.548   5.803  12.804  0.00  0.00    +0.000 OA
BRANCH   5   7
ATOM      7  C   UNL     1      48.387   6.255  15.097  0.00  0.00    +0.000 A 
ATOM      8  C   UNL     1      49.063   7.207  15.855  0.00  0.00    +0.000 A 
ATOM      9  S   UNL     1      49.194   6.818  17.505  0.00  0.00    +0.000 S 
ATOM     10  C   UNL     1      48.359   5.356  17.277  0.00  0.00    +0.000 A 
ATOM     11  N   UNL     1      48.050   4.568  18.345  0.00  0.00    +0.000 NA
ATOM     12  C   UNL     1      47.371   3.508  18.044  0.00  0.00    +0.000 A 
ATOM     13  N   UNL     1      47.012   3.151  16.776  0.00  0.00    +0.000 N 
ATOM     14  C   UNL     1      47.470   3.819  15.666  0.00  0.00    +0.000 A 
ATOM     15  O   UNL     1      47.412   3.277  14.570  0.00  0.00    +0.000 OA
ATOM     16  C   UNL     1      48.067   5.115  15.941  0.00  0.00    +0.000 A 
ATOM     17  H   UNL     1      46.584   2.252  16.600  0.00  0.00    +0.000 HD
ENDBRANCH   5   7
ENDBRANCH   1   5
BRANCH   1  18
ATOM     18  C   UNL     1      45.788   7.390  13.285  0.00  0.00    +0.000 C 
BRANCH  18  19
ATOM     19  C   UNL     1      45.337   6.306  12.330  0.00  0.00    +0.000 A 
ATOM     20  C   UNL     1      45.431   6.501  10.945  0.00  0.00    +0.000 A 
ATOM     21  C   UNL     1      45.202   5.441  10.065  0.00  0.00    +0.000 A 
ATOM     22  C   UNL     1      44.872   4.172  10.555  0.00  0.00    +0.000 A 
ATOM     23  C   UNL     1      44.701   3.998  11.930  0.00  0.00    +0.000 A 
ATOM     24  C   UNL     1      44.925   5.057  12.804  0.00  0.00    +0.000 A 
BRANCH  22  25
ATOM     25  C   UNL     1      44.718   2.996   9.624  0.00  0.00    +0.000 C 
BRANCH  25  26
ATOM     26  N   UNL     1      45.905   2.747   8.774  0.00  0.00    +0.000 NA
ATOM     27  C   UNL     1      45.994   1.328   8.386  0.00  0.00    +0.000 C 
ATOM     28  C   UNL     1      47.105   1.052   7.371  0.00  0.00    +0.000 C 
ATOM     29  C   UNL     1      46.961   1.945   6.149  0.00  0.00    +0.000 C 
ATOM     30  C   UNL     1      46.948   3.400   6.589  0.00  0.00    +0.000 C 
ATOM     31  C   UNL     1      45.849   3.656   7.619  0.00  0.00    +0.000 C 
ENDBRANCH  25  26
ENDBRANCH  22  25
ENDBRANCH  18  19
ENDBRANCH   1  18
TORSDOF 7
ENDMDL
MODEL 2
REMARK VINA RESULT:    -7.505      2.807      4.370
REMARK INTER + INTRA:         -11.204
REMARK INTER:                 -10.153
REMARK INTRA:                  -1.051
REMARK UNBOUND:                -0.628
REMARK  Name = 
REMARK  9 active torsions:
REMARK  status: ('A' for Active; 'I' for Inactive)
REMARK    1  A    between atoms: C_1  and  N_2
REMARK    2  A    between atoms: N_2  and  C_3
REMARK    3  A    between atoms: N_2  and  C_4
REMARK    4  A    between atoms: C_4  and  C_5
REMARK    5  A    between atoms: C_4  and  C_19
REMARK    6  A    between atoms: C_5  and  C_6
REMARK    7  A    between atoms: C_9  and  C_10
REMARK    8  A    between atoms: C_10  and  N_11
REMARK    9  A    between atoms: C_19  and  C_21
REMARK                            x       y       z     vdW  Elec       q    Type
REMARK                         _______ _______ _______ _____ _____    ______ ____
ROOT
ATOM      1  C   UNL     1      48.357   6.169  17.398  0.00  0.00    +0.000 C 
ENDROOT
BRANCH   1   3
ATOM      2  C   UNL     1      48.629   8.615  17.433  0.00  0.00    +0.000 C 
ATOM      3  N   UNL     1      48.675   7.381  18.233  0.00  0.00    +0.000 NA
ATOM      4  C   UNL     1      47.733   7.527  19.351  0.00  0.00    +0.000 C 
ENDBRANCH   1   3
BRANCH   1   5
ATOM      5  C   UNL     1      48.768   4.835  18.061  0.00  0.00    +0.000 C 
ATOM      6  O   UNL     1      47.914   4.077  18.532  0.00  0.00    +0.000 OA
BRANCH   5   7
ATOM      7  C   UNL     1      50.196   4.411  18.117  0.00  0.00    +0.000 A 
ATOM      8  C   UNL     1      51.121   5.271  18.702  0.00  0.00    +0.000 A 
ATOM      9  S   UNL     1      52.682   4.613  18.856  0.00  0.00    +0.000 S 
ATOM     10  C   UNL     1      52.190   3.152  18.142  0.00  0.00    +0.000 A 
ATOM     11  N   UNL     1      53.056   2.104  18.055  0.00  0.00    +0.000 NA
ATOM     12  C   UNL     1      52.545   1.034  17.534  0.00  0.00    +0.000 A 
ATOM     13  N   UNL     1      51.268   0.936  17.062  0.00  0.00    +0.000 N 
ATOM     14  C   UNL     1      50.435   2.023  16.959  0.00  0.00    +0.000 A 
ATOM     15  O   UNL     1      49.454   1.964  16.231  0.00  0.00    +0.000 OA
ATOM     16  C   UNL     1      50.874   3.196  17.698  0.00  0.00    +0.000 A 
ATOM     17  H   UNL     1      50.971   0.108  16.563  0.00  0.00    +0.000 HD
ENDBRANCH   5   7
ENDBRANCH   1   5
BRANCH   1  18
ATOM     18  C   UNL     1      48.961   6.159  15.972  0.00  0.00    +0.000 C 
BRANCH  18  19
ATOM     19  C   UNL     1      48.057   5.811  14.810  0.00  0.00    +0.000 A 
ATOM     20  C   UNL     1      47.255   4.662  14.859  0.00  0.00    +0.000 A 
ATOM     21  C   UNL     1      46.281   4.438  13.884  0.00  0.00    +0.000 A 
ATOM     22  C   UNL     1      46.095   5.356  12.843  0.00  0.00    +0.000 A 
ATOM     23  C   UNL     1      46.948   6.458  12.751  0.00  0.00    +0.000 A 
ATOM     24  C   UNL     1      47.920   6.677  13.721  0.00  0.00    +0.000 A 
BRANCH  22  25
ATOM     25  C   UNL     1      44.984   5.178  11.840  0.00  0.00    +0.000 C 
BRANCH  25  26
ATOM     26  N   UNL     1      45.339   4.292  10.706  0.00  0.00    +0.000 NA
ATOM     27  C   UNL     1      44.315   3.252  10.503  0.00  0.00    +0.000 C 
ATOM     28  C   UNL     1      44.549   2.419   9.241  0.00  0.00    +0.000 C 
ATOM     29  C   UNL     1      44.676   3.310   8.015  0.00  0.00    +0.000 C 
ATOM     30  C   UNL     1      45.791   4.318   8.240  0.00  0.00    +0.000 C 
ATOM     31  C   UNL     1      45.556   5.127   9.514  0.00  0.00    +0.000 C 
ENDBRANCH  25  26
ENDBRANCH  22  25
ENDBRANCH  18  19
ENDBRANCH   1  18
TORSDOF 7
ENDMDL
MODEL 3
REMARK VINA RESULT:    -7.078      2.535      3.397
REMARK INTER + INTRA:         -10.603
REMARK INTER:                 -10.200
REMARK INTRA:                  -0.402
REMARK UNBOUND:                -0.628
REMARK  Name = 
REMARK  9 active torsions:
REMARK  status: ('A' for Active; 'I' for Inactive)
REMARK    1  A    between atoms: C_1  and  N_2
REMARK    2  A    between atoms: N_2  and  C_3
REMARK    3  A    between atoms: N_2  and  C_4
REMARK    4  A    between atoms: C_4  and  C_5
REMARK    5  A    between atoms: C_4  and  C_19
REMARK    6  A    between atoms: C_5  and  C_6
REMARK    7  A    between atoms: C_9  and  C_10
REMARK    8  A    between atoms: C_10  and  N_11
REMARK    9  A    between atoms: C_19  and  C_21
REMARK                            x       y       z     vdW  Elec       q    Type
REMARK                         _______ _______ _______ _____ _____    ______ ____
ROOT
ATOM      1  C   UNL     1      48.165   6.050  15.799  0.00  0.00    +0.000 C 
ENDROOT
BRANCH   1   3
ATOM      2  C   UNL     1      49.396   7.542  14.277  0.00  0.00    +0.000 C 
ATOM      3  N   UNL     1      49.088   7.233  15.682  0.00  0.00    +0.000 NA
ATOM      4  C   UNL     1      48.504   8.434  16.296  0.00  0.00    +0.000 C 
ENDBRANCH   1   3
BRANCH   1   5
ATOM      5  C   UNL     1      48.440   5.168  17.037  0.00  0.00    +0.000 C 
ATOM      6  O   UNL     1      47.511   4.779  17.753  0.00  0.00    +0.000 OA
BRANCH   5   7
ATOM      7  C   UNL     1      49.824   4.734  17.382  0.00  0.00    +0.000 A 
ATOM      8  C   UNL     1      50.699   5.672  17.922  0.00  0.00    +0.000 A 
ATOM      9  S   UNL     1      52.189   5.025  18.425  0.00  0.00    +0.000 S 
ATOM     10  C   UNL     1      51.732   3.463  17.936  0.00  0.00    +0.000 A 
ATOM     11  N   UNL     1      52.550   2.401  18.177  0.00  0.00    +0.000 NA
ATOM     12  C   UNL     1      52.066   1.261  17.799  0.00  0.00    +0.000 A 
ATOM     13  N   UNL     1      50.864   1.099  17.172  0.00  0.00    +0.000 N 
ATOM     14  C   UNL     1      50.107   2.163  16.744  0.00  0.00    +0.000 A 
ATOM     15  O   UNL     1      49.236   1.983  15.905  0.00  0.00    +0.000 OA
ATOM     16  C   UNL     1      50.495   3.447  17.304  0.00  0.00    +0.000 A 
ATOM     17  H   UNL     1      50.600   0.196  16.800  0.00  0.00    +0.000 HD
ENDBRANCH   5   7
ENDBRANCH   1   5
BRANCH   1  18
ATOM     18  C   UNL     1      48.136   5.098  14.577  0.00  0.00    +0.000 C 
BRANCH  18  19
ATOM     19  C   UNL     1      46.863   5.011  13.763  0.00  0.00    +0.000 A 
ATOM     20  C   UNL     1      46.276   6.172  13.243  0.00  0.00    +0.000 A 
ATOM     21  C   UNL     1      45.218   6.084  12.336  0.00  0.00    +0.000 A 
ATOM     22  C   UNL     1      44.729   4.835  11.936  0.00  0.00    +0.000 A 
ATOM     23  C   UNL     1      45.262   3.681  12.515  0.00  0.00    +0.000 A 
ATOM     24  C   UNL     1      46.313   3.772  13.423  0.00  0.00    +0.000 A 
BRANCH  22  25
ATOM     25  C   UNL     1      43.655   4.721  10.884  0.00  0.00    +0.000 C 
BRANCH  25  26
ATOM     26  N   UNL     1      44.090   4.008   9.661  0.00  0.00    +0.000 NA
ATOM     27  C   UNL     1      45.326   4.595   9.114  0.00  0.00    +0.000 C 
ATOM     28  C   UNL     1      45.909   3.790   7.951  0.00  0.00    +0.000 C 
ATOM     29  C   UNL     1      46.122   2.337   8.346  0.00  0.00    +0.000 C 
ATOM     30  C   UNL     1      44.806   1.751   8.834  0.00  0.00    +0.000 C 
ATOM     31  C   UNL     1      44.225   2.578   9.979  0.00  0.00    +0.000 C 
ENDBRANCH  25  26
ENDBRANCH  22  25
ENDBRANCH  18  19
ENDBRANCH   1  18
TORSDOF 7
ENDMDL
MODEL 4
REMARK VINA RESULT:    -6.990      2.315      3.251
REMARK INTER + INTRA:         -10.478
REMARK INTER:                  -9.576
REMARK INTRA:                  -0.902
REMARK UNBOUND:                -0.628
REMARK  Name = 
REMARK  9 active torsions:
REMARK  status: ('A' for Active; 'I' for Inactive)
REMARK    1  A    between atoms: C_1  and  N_2
REMARK    2  A    between atoms: N_2  and  C_3
REMARK    3  A    between atoms: N_2  and  C_4
REMARK    4  A    between atoms: C_4  and  C_5
REMARK    5  A    between atoms: C_4  and  C_19
REMARK    6  A    between atoms: C_5  and  C_6
REMARK    7  A    between atoms: C_9  and  C_10
REMARK    8  A    between atoms: C_10  and  N_11
REMARK    9  A    between atoms: C_19  and  C_21
REMARK                            x       y       z     vdW  Elec       q    Type
REMARK                         _______ _______ _______ _____ _____    ______ ____
ROOT
ATOM      1  C   UNL     1      48.998   7.704  14.500  0.00  0.00    +0.000 C 
ENDROOT
BRANCH   1   3
ATOM      2  C   UNL     1      50.216   9.094  12.875  0.00  0.00    +0.000 C 
ATOM      3  N   UNL     1      49.732   8.997  14.260  0.00  0.00    +0.000 NA
ATOM      4  C   UNL     1      48.874  10.160  14.526  0.00  0.00    +0.000 C 
ENDBRANCH   1   3
BRANCH   1   5
ATOM      5  C   UNL     1      49.606   6.848  15.633  0.00  0.00    +0.000 C 
ATOM      6  O   UNL     1      50.820   6.624  15.671  0.00  0.00    +0.000 OA
BRANCH   5   7
ATOM      7  C   UNL     1      48.754   6.302  16.728  0.00  0.00    +0.000 A 
ATOM      8  C   UNL     1      48.260   5.007  16.602  0.00  0.00    +0.000 A 
ATOM      9  S   UNL     1      47.442   4.436  17.980  0.00  0.00    +0.000 S 
ATOM     10  C   UNL     1      47.707   5.899  18.802  0.00  0.00    +0.000 A 
ATOM     11  N   UNL     1      47.321   6.036  20.102  0.00  0.00    +0.000 NA
ATOM     12  C   UNL     1      47.622   7.180  20.628  0.00  0.00    +0.000 A 
ATOM     13  N   UNL     1      48.233   8.203  19.962  0.00  0.00    +0.000 N 
ATOM     14  C   UNL     1      48.459   8.168  18.607  0.00  0.00    +0.000 A 
ATOM     15  O   UNL     1      48.683   9.210  18.007  0.00  0.00    +0.000 OA
ATOM     16  C   UNL     1      48.325   6.853  18.003  0.00  0.00    +0.000 A 
ATOM     17  H   UNL     1      48.333   9.109  20.399  0.00  0.00    +0.000 HD
ENDBRANCH   5   7
ENDBRANCH   1   5
BRANCH   1  18
ATOM     18  C   UNL     1      48.859   6.775  13.269  0.00  0.00    +0.000 C 
BRANCH  18  19
ATOM     19  C   UNL     1      47.468   6.407  12.799  0.00  0.00    +0.000 A 
ATOM     20  C   UNL     1      46.786   7.235  11.896  0.00  0.00    +0.000 A 
ATOM     21  C   UNL     1      45.592   6.810  11.311  0.00  0.00    +0.000 A 
ATOM     22  C   UNL     1      45.059   5.553  11.619  0.00  0.00    +0.000 A 
ATOM     23  C   UNL     1      45.697   4.762  12.579  0.00  0.00    +0.000 A 
ATOM     24  C   UNL     1      46.884   5.191  13.164  0.00  0.00    +0.000 A 
BRANCH  22  25
ATOM     25  C   UNL     1      43.825   5.039  10.923  0.00  0.00    +0.000 C 
BRANCH  25  26
ATOM     26  N   UNL     1      44.113   4.216   9.726  0.00  0.00    +0.000 NA
ATOM     27  C   UNL     1      45.328   4.686   9.038  0.00  0.00    +0.000 C 
ATOM     28  C   UNL     1      45.765   3.766   7.895  0.00  0.00    +0.000 C 
ATOM     29  C   UNL     1      45.930   2.334   8.381  0.00  0.00    +0.000 C 
ATOM     30  C   UNL     1      44.631   1.866   9.017  0.00  0.00    +0.000 C 
ATOM     31  C   UNL     1      44.196   2.807  10.140  0.00  0.00    +0.000 C 
ENDBRANCH  25  26
ENDBRANCH  22  25
ENDBRANCH  18  19
ENDBRANCH   1  18
TORSDOF 7
ENDMDL
MODEL 5
REMARK VINA RESULT:    -6.935      1.913      2.569
REMARK INTER + INTRA:         -10.401
REMARK INTER:                  -9.384
REMARK INTRA:                  -1.017
REMARK UNBOUND:                -0.628
REMARK  Name = 
REMARK  9 active torsions:
REMARK  status: ('A' for Active; 'I' for Inactive)
REMARK    1  A    between atoms: C_1  and  N_2
REMARK    2  A    between atoms: N_2  and  C_3
REMARK    3  A    between atoms: N_2  and  C_4
REMARK    4  A    between atoms: C_4  and  C_5
REMARK    5  A    between atoms: C_4  and  C_19
REMARK    6  A    between atoms: C_5  and  C_6
REMARK    7  A    between atoms: C_9  and  C_10
REMARK    8  A    between atoms: C_10  and  N_11
REMARK    9  A    between atoms: C_19  and  C_21
REMARK                            x       y       z     vdW  Elec       q    Type
REMARK                         _______ _______ _______ _____ _____    ______ ____
ROOT
ATOM      1  C   UNL     1      48.481   8.268  13.787  0.00  0.00    +0.000 C 
ENDROOT
BRANCH   1   3
ATOM      2  C   UNL     1      50.102   8.365  11.938  0.00  0.00    +0.000 C 
ATOM      3  N   UNL     1      49.380   9.144  12.955  0.00  0.00    +0.000 NA
ATOM      4  C   UNL     1      48.619  10.197  12.268  0.00  0.00    +0.000 C 
ENDBRANCH   1   3
BRANCH   1   5
ATOM      5  C   UNL     1      48.859   8.238  15.285  0.00  0.00    +0.000 C 
ATOM      6  O   UNL     1      48.243   8.930  16.103  0.00  0.00    +0.000 OA
BRANCH   5   7
ATOM      7  C   UNL     1      49.946   7.351  15.788  0.00  0.00    +0.000 A 
ATOM      8  C   UNL     1      51.267   7.744  15.592  0.00  0.00    +0.000 A 
ATOM      9  S   UNL     1      52.411   6.739  16.349  0.00  0.00    +0.000 S 
ATOM     10  C   UNL     1      51.190   5.732  16.966  0.00  0.00    +0.000 A 
ATOM     11  N   UNL     1      51.506   4.702  17.800  0.00  0.00    +0.000 NA
ATOM     12  C   UNL     1      50.484   4.040  18.239  0.00  0.00    +0.000 A 
ATOM     13  N   UNL     1      49.189   4.292  17.888  0.00  0.00    +0.000 N 
ATOM     14  C   UNL     1      48.854   5.193  16.906  0.00  0.00    +0.000 A 
ATOM     15  O   UNL     1      47.746   5.140  16.392  0.00  0.00    +0.000 OA
ATOM     16  C   UNL     1      49.926   6.096  16.520  0.00  0.00    +0.000 A 
ATOM     17  H   UNL     1      48.450   3.664  18.176  0.00  0.00    +0.000 HD
ENDBRANCH   5   7
ENDBRANCH   1   5
BRANCH   1  18
ATOM     18  C   UNL     1      48.372   6.793  13.328  0.00  0.00    +0.000 C 
BRANCH  18  19
ATOM     19  C   UNL     1      47.051   6.309  12.770  0.00  0.00    +0.000 A 
ATOM     20  C   UNL     1      46.315   7.119  11.894  0.00  0.00    +0.000 A 
ATOM     21  C   UNL     1      45.201   6.608  11.226  0.00  0.00    +0.000 A 
ATOM     22  C   UNL     1      44.802   5.281  11.425  0.00  0.00    +0.000 A 
ATOM     23  C   UNL     1      45.488   4.499  12.358  0.00  0.00    +0.000 A 
ATOM     24  C   UNL     1      46.595   5.013  13.026  0.00  0.00    +0.000 A 
BRANCH  22  25
ATOM     25  C   UNL     1      43.662   4.685  10.639  0.00  0.00    +0.000 C 
BRANCH  25  26
ATOM     26  N   UNL     1      44.095   3.904   9.457  0.00  0.00    +0.000 NA
ATOM     27  C   UNL     1      45.272   4.517   8.818  0.00  0.00    +0.000 C 
ATOM     28  C   UNL     1      45.861   3.657   7.697  0.00  0.00    +0.000 C 
ATOM     29  C   UNL     1      46.175   2.255   8.193  0.00  0.00    +0.000 C 
ATOM     30  C   UNL     1      44.916   1.634   8.777  0.00  0.00    +0.000 C 
ATOM     31  C   UNL     1      44.327   2.514   9.879  0.00  0.00    +0.000 C 
ENDBRANCH  25  26
ENDBRANCH  22  25
ENDBRANCH  18  19
ENDBRANCH   1  18
TORSDOF 7
ENDMDL
MODEL 6
REMARK VINA RESULT:    -6.891      2.274      3.799
REMARK INTER + INTRA:         -10.339
REMARK INTER:                  -8.826
REMARK INTRA:                  -1.513
REMARK UNBOUND:                -0.628
REMARK  Name = 
REMARK  9 active torsions:
REMARK  status: ('A' for Active; 'I' for Inactive)
REMARK    1  A    between atoms: C_1  and  N_2
REMARK    2  A    between atoms: N_2  and  C_3
REMARK    3  A    between atoms: N_2  and  C_4
REMARK    4  A    between atoms: C_4  and  C_5
REMARK    5  A    between atoms: C_4  and  C_19
REMARK    6  A    between atoms: C_5  and  C_6
REMARK    7  A    between atoms: C_9  and  C_10
REMARK    8  A    between atoms: C_10  and  N_11
REMARK    9  A    between atoms: C_19  and  C_21
REMARK                            x       y       z     vdW  Elec       q    Type
REMARK                         _______ _______ _______ _____ _____    ______ ____
ROOT
ATOM      1  C   UNL     1      48.970   8.367  15.930  0.00  0.00    +0.000 C 
ENDROOT
BRANCH   1   3
ATOM      2  C   UNL     1      50.097  10.394  16.754  0.00  0.00    +0.000 C 
ATOM      3  N   UNL     1      49.181   9.295  17.097  0.00  0.00    +0.000 NA
ATOM      4  C   UNL     1      47.914   9.884  17.552  0.00  0.00    +0.000 C 
ENDBRANCH   1   3
BRANCH   1   5
ATOM      5  C   UNL     1      50.014   7.231  15.846  0.00  0.00    +0.000 C 
ATOM      6  O   UNL     1      50.976   7.317  15.075  0.00  0.00    +0.000 OA
BRANCH   5   7
ATOM      7  C   UNL     1      49.912   6.024  16.714  0.00  0.00    +0.000 A 
ATOM      8  C   UNL     1      50.877   5.830  17.698  0.00  0.00    +0.000 A 
ATOM      9  S   UNL     1      50.565   4.514  18.729  0.00  0.00    +0.000 S 
ATOM     10  C   UNL     1      49.130   4.142  17.900  0.00  0.00    +0.000 A 
ATOM     11  N   UNL     1      48.317   3.144  18.348  0.00  0.00    +0.000 NA
ATOM     12  C   UNL     1      47.233   2.992  17.657  0.00  0.00    +0.000 A 
ATOM     13  N   UNL     1      46.913   3.718  16.546  0.00  0.00    +0.000 N 
ATOM     14  C   UNL     1      47.794   4.594  15.960  0.00  0.00    +0.000 A 
ATOM     15  O   UNL     1      47.609   4.953  14.805  0.00  0.00    +0.000 OA
ATOM     16  C   UNL     1      48.936   4.949  16.786  0.00  0.00    +0.000 A 
ATOM     17  H   UNL     1      46.107   3.469  15.988  0.00  0.00    +0.000 HD
ENDBRANCH   5   7
ENDBRANCH   1   5
BRANCH   1  18
ATOM     18  C   UNL     1      48.935   9.040  14.536  0.00  0.00    +0.000 C 
BRANCH  18  19
ATOM     19  C   UNL     1      47.944   8.527  13.514  0.00  0.00    +0.000 A 
ATOM     20  C   UNL     1      48.355   7.625  12.522  0.00  0.00    +0.000 A 
ATOM     21  C   UNL     1      47.414   7.000  11.702  0.00  0.00    +0.000 A 
ATOM     22  C   UNL     1      46.049   7.268  11.856  0.00  0.00    +0.000 A 
ATOM     23  C   UNL     1      45.647   8.226  12.791  0.00  0.00    +0.000 A 
ATOM     24  C   UNL     1      46.587   8.851  13.604  0.00  0.00    +0.000 A 
BRANCH  22  25
ATOM     25  C   UNL     1      45.014   6.529  11.045  0.00  0.00    +0.000 C 
BRANCH  25  26
ATOM     26  N   UNL     1      44.963   5.075  11.325  0.00  0.00    +0.000 NA
ATOM     27  C   UNL     1      44.028   4.779  12.425  0.00  0.00    +0.000 C 
ATOM     28  C   UNL     1      43.811   3.279  12.639  0.00  0.00    +0.000 C 
ATOM     29  C   UNL     1      43.372   2.602  11.349  0.00  0.00    +0.000 C 
ATOM     30  C   UNL     1      44.401   2.874  10.264  0.00  0.00    +0.000 C 
ATOM     31  C   UNL     1      44.624   4.373  10.077  0.00  0.00    +0.000 C 
ENDBRANCH  25  26
ENDBRANCH  22  25
ENDBRANCH  18  19
ENDBRANCH   1  18
TORSDOF 7
ENDMDL
MODEL 7
REMARK VINA RESULT:    -6.612      2.645      3.581
REMARK INTER + INTRA:          -9.946
REMARK INTER:                  -8.820
REMARK INTRA:                  -1.126
REMARK UNBOUND:                -0.628
REMARK  Name = 
REMARK  9 active torsions:
REMARK  status: ('A' for Active; 'I' for Inactive)
REMARK    1  A    between atoms: C_1  and  N_2
REMARK    2  A    between atoms: N_2  and  C_3
REMARK    3  A    between atoms: N_2  and  C_4
REMARK    4  A    between atoms: C_4  and  C_5
REMARK    5  A    between atoms: C_4  and  C_19
REMARK    6  A    between atoms: C_5  and  C_6
REMARK    7  A    between atoms: C_9  and  C_10
REMARK    8  A    between atoms: C_10  and  N_11
REMARK    9  A    between atoms: C_19  and  C_21
REMARK                            x       y       z     vdW  Elec       q    Type
REMARK                         _______ _______ _______ _____ _____    ______ ____
ROOT
ATOM      1  C   UNL     1      48.973   7.594  16.007  0.00  0.00    +0.000 C 
ENDROOT
BRANCH   1   3
ATOM      2  C   UNL     1      51.401   7.895  15.739  0.00  0.00    +0.000 C 
ATOM      3  N   UNL     1      50.116   8.573  15.968  0.00  0.00    +0.000 NA
ATOM      4  C   UNL     1      49.932   9.573  14.907  0.00  0.00    +0.000 C 
ENDBRANCH   1   3
BRANCH   1   5
ATOM      5  C   UNL     1      48.797   6.901  17.377  0.00  0.00    +0.000 C 
ATOM      6  O   UNL     1      48.654   7.570  18.406  0.00  0.00    +0.000 OA
BRANCH   5   7
ATOM      7  C   UNL     1      48.758   5.416  17.490  0.00  0.00    +0.000 A 
ATOM      8  C   UNL     1      47.521   4.779  17.447  0.00  0.00    +0.000 A 
ATOM      9  S   UNL     1      47.612   3.081  17.420  0.00  0.00    +0.000 S 
ATOM     10  C   UNL     1      49.310   3.123  17.471  0.00  0.00    +0.000 A 
ATOM     11  N   UNL     1      50.029   1.969  17.382  0.00  0.00    +0.000 NA
ATOM     12  C   UNL     1      51.312   2.140  17.385  0.00  0.00    +0.000 A 
ATOM     13  N   UNL     1      51.932   3.350  17.507  0.00  0.00    +0.000 N 
ATOM     14  C   UNL     1      51.244   4.505  17.790  0.00  0.00    +0.000 A 
ATOM     15  O   UNL     1      51.848   5.476  18.225  0.00  0.00    +0.000 OA
ATOM     16  C   UNL     1      49.805   4.414  17.608  0.00  0.00    +0.000 A 
ATOM     17  H   UNL     1      52.936   3.400  17.619  0.00  0.00    +0.000 HD
ENDBRANCH   5   7
ENDBRANCH   1   5
BRANCH   1  18
ATOM     18  C   UNL     1      49.019   6.467  14.944  0.00  0.00    +0.000 C 
BRANCH  18  19
ATOM     19  C   UNL     1      47.867   6.349  13.971  0.00  0.00    +0.000 A 
ATOM     20  C   UNL     1      47.817   7.167  12.834  0.00  0.00    +0.000 A 
ATOM     21  C   UNL     1      46.868   6.933  11.837  0.00  0.00    +0.000 A 
ATOM     22  C   UNL     1      45.953   5.881  11.961  0.00  0.00    +0.000 A 
ATOM     23  C   UNL     1      45.952   5.117  13.131  0.00  0.00    +0.000 A 
ATOM     24  C   UNL     1      46.896   5.355  14.125  0.00  0.00    +0.000 A 
BRANCH  22  25
ATOM     25  C   UNL     1      44.987   5.555  10.850  0.00  0.00    +0.000 C 
BRANCH  25  26
ATOM     26  N   UNL     1      45.426   4.434   9.987  0.00  0.00    +0.000 NA
ATOM     27  C   UNL     1      44.346   3.448   9.807  0.00  0.00    +0.000 C 
ATOM     28  C   UNL     1      44.691   2.359   8.789  0.00  0.00    +0.000 C 
ATOM     29  C   UNL     1      45.103   2.969   7.458  0.00  0.00    +0.000 C 
ATOM     30  C   UNL     1      46.266   3.923   7.681  0.00  0.00    +0.000 C 
ATOM     31  C   UNL     1      45.915   4.989   8.716  0.00  0.00    +0.000 C 
ENDBRANCH  25  26
ENDBRANCH  22  25
ENDBRANCH  18  19
ENDBRANCH   1  18
TORSDOF 7
ENDMDL
MODEL 8
REMARK VINA RESULT:    -6.554      3.232      6.938
REMARK INTER + INTRA:          -9.864
REMARK INTER:                  -8.499
REMARK INTRA:                  -1.365
REMARK UNBOUND:                -0.628
REMARK  Name = 
REMARK  9 active torsions:
REMARK  status: ('A' for Active; 'I' for Inactive)
REMARK    1  A    between atoms: C_1  and  N_2
REMARK    2  A    between atoms: N_2  and  C_3
REMARK    3  A    between atoms: N_2  and  C_4
REMARK    4  A    between atoms: C_4  and  C_5
REMARK    5  A    between atoms: C_4  and  C_19
REMARK    6  A    between atoms: C_5  and  C_6
REMARK    7  A    between atoms: C_9  and  C_10
REMARK    8  A    between atoms: C_10  and  N_11
REMARK    9  A    between atoms: C_19  and  C_21
REMARK                            x       y       z     vdW  Elec       q    Type
REMARK                         _______ _______ _______ _____ _____    ______ ____
ROOT
ATOM      1  C   UNL     1      48.283   8.070  12.954  0.00  0.00    +0.000 C 
ENDROOT
BRANCH   1   3
ATOM      2  C   UNL     1      49.057   9.841  11.430  0.00  0.00    +0.000 C 
ATOM      3  N   UNL     1      48.859   8.394  11.601  0.00  0.00    +0.000 NA
ATOM      4  C   UNL     1      50.152   7.729  11.393  0.00  0.00    +0.000 C 
ENDBRANCH   1   3
BRANCH   1   5
ATOM      5  C   UNL     1      46.743   8.174  13.014  0.00  0.00    +0.000 C 
ATOM      6  O   UNL     1      46.196   9.231  13.345  0.00  0.00    +0.000 OA
BRANCH   5   7
ATOM      7  C   UNL     1      45.878   7.020  12.639  0.00  0.00    +0.000 A 
ATOM      8  C   UNL     1      44.770   7.257  11.830  0.00  0.00    +0.000 A 
ATOM      9  S   UNL     1      43.956   5.847  11.335  0.00  0.00    +0.000 S 
ATOM     10  C   UNL     1      45.045   4.860  12.188  0.00  0.00    +0.000 A 
ATOM     11  N   UNL     1      44.954   3.504  12.102  0.00  0.00    +0.000 NA
ATOM     12  C   UNL     1      45.870   2.867  12.759  0.00  0.00    +0.000 A 
ATOM     13  N   UNL     1      46.835   3.463  13.518  0.00  0.00    +0.000 N 
ATOM     14  C   UNL     1      46.838   4.812  13.780  0.00  0.00    +0.000 A 
ATOM     15  O   UNL     1      47.494   5.243  14.718  0.00  0.00    +0.000 OA
ATOM     16  C   UNL     1      45.963   5.597  12.925  0.00  0.00    +0.000 A 
ATOM     17  H   UNL     1      47.447   2.904  14.098  0.00  0.00    +0.000 HD
ENDBRANCH   5   7
ENDBRANCH   1   5
BRANCH   1  18
ATOM     18  C   UNL     1      48.830   8.912  14.134  0.00  0.00    +0.000 C 
BRANCH  18  19
ATOM     19  C   UNL     1      49.290   8.189  15.381  0.00  0.00    +0.000 A 
ATOM     20  C   UNL     1      48.588   8.342  16.585  0.00  0.00    +0.000 A 
ATOM     21  C   UNL     1      48.886   7.534  17.684  0.00  0.00    +0.000 A 
ATOM     22  C   UNL     1      49.891   6.563  17.599  0.00  0.00    +0.000 A 
ATOM     23  C   UNL     1      50.643   6.466  16.425  0.00  0.00    +0.000 A 
ATOM     24  C   UNL     1      50.347   7.276  15.333  0.00  0.00    +0.000 A 
BRANCH  22  25
ATOM     25  C   UNL     1      50.159   5.619  18.743  0.00  0.00    +0.000 C 
BRANCH  25  26
ATOM     26  N   UNL     1      49.680   4.238  18.502  0.00  0.00    +0.000 NA
ATOM     27  C   UNL     1      48.333   4.239  17.904  0.00  0.00    +0.000 C 
ATOM     28  C   UNL     1      47.864   2.846  17.479  0.00  0.00    +0.000 C 
ATOM     29  C   UNL     1      48.874   2.191  16.550  0.00  0.00    +0.000 C 
ATOM     30  C   UNL     1      50.231   2.145  17.235  0.00  0.00    +0.000 C 
ATOM     31  C   UNL     1      50.675   3.539  17.674  0.00  0.00    +0.000 C 
ENDBRANCH  25  26
ENDBRANCH  22  25
ENDBRANCH  18  19
ENDBRANCH   1  18
TORSDOF 7
ENDMDL
MODEL 9
REMARK VINA RESULT:    -6.195      3.129      4.653
REMARK INTER + INTRA:          -9.359
REMARK INTER:                  -8.600
REMARK INTRA:                  -0.759
REMARK UNBOUND:                -0.628
REMARK  Name = 
REMARK  9 active torsions:
REMARK  status: ('A' for Active; 'I' for Inactive)
REMARK    1  A    between atoms: C_1  and  N_2
REMARK    2  A    between atoms: N_2  and  C_3
REMARK    3  A    between atoms: N_2  and  C_4
REMARK    4  A    between atoms: C_4  and  C_5
REMARK    5  A    between atoms: C_4  and  C_19
REMARK    6  A    between atoms: C_5  and  C_6
REMARK    7  A    between atoms: C_9  and  C_10
REMARK    8  A    between atoms: C_10  and  N_11
REMARK    9  A    between atoms: C_19  and  C_21
REMARK                            x       y       z     vdW  Elec       q    Type
REMARK                         _______ _______ _______ _____ _____    ______ ____
ROOT
ATOM      1  C   UNL     1      48.815   7.731  16.990  0.00  0.00    +0.000 C 
ENDROOT
BRANCH   1   3
ATOM      2  C   UNL     1      50.140   9.665  16.240  0.00  0.00    +0.000 C 
ATOM      3  N   UNL     1      49.284   9.125  17.309  0.00  0.00    +0.000 NA
ATOM      4  C   UNL     1      48.153  10.044  17.495  0.00  0.00    +0.000 C 
ENDBRANCH   1   3
BRANCH   1   5
ATOM      5  C   UNL     1      49.144   6.699  18.091  0.00  0.00    +0.000 C 
ATOM      6  O   UNL     1      49.605   7.064  19.178  0.00  0.00    +0.000 OA
BRANCH   5   7
ATOM      7  C   UNL     1      48.883   5.245  17.889  0.00  0.00    +0.000 A 
ATOM      8  C   UNL     1      47.567   4.826  17.714  0.00  0.00    +0.000 A 
ATOM      9  S   UNL     1      47.407   3.177  17.329  0.00  0.00    +0.000 S 
ATOM     10  C   UNL     1      49.090   2.951  17.387  0.00  0.00    +0.000 A 
ATOM     11  N   UNL     1      49.633   1.745  17.056  0.00  0.00    +0.000 NA
ATOM     12  C   UNL     1      50.926   1.717  17.094  0.00  0.00    +0.000 A 
ATOM     13  N   UNL     1      51.715   2.767  17.468  0.00  0.00    +0.000 N 
ATOM     14  C   UNL     1      51.196   3.928  17.989  0.00  0.00    +0.000 A 
ATOM     15  O   UNL     1      51.924   4.684  18.617  0.00  0.00    +0.000 OA
ATOM     16  C   UNL     1      49.766   4.095  17.792  0.00  0.00    +0.000 A 
ATOM     17  H   UNL     1      52.711   2.640  17.587  0.00  0.00    +0.000 HD
ENDBRANCH   5   7
ENDBRANCH   1   5
BRANCH   1  18
ATOM     18  C   UNL     1      49.334   7.137  15.657  0.00  0.00    +0.000 C 
BRANCH  18  19
ATOM     19  C   UNL     1      48.350   6.942  14.524  0.00  0.00    +0.000 A 
ATOM     20  C   UNL     1      48.095   7.985  13.623  0.00  0.00    +0.000 A 
ATOM     21  C   UNL     1      47.342   7.754  12.470  0.00  0.00    +0.000 A 
ATOM     22  C   UNL     1      46.831   6.479  12.200  0.00  0.00    +0.000 A 
ATOM     23  C   UNL     1      47.018   5.461  13.137  0.00  0.00    +0.000 A 
ATOM     24  C   UNL     1      47.765   5.694  14.288  0.00  0.00    +0.000 A 
BRANCH  22  25
ATOM     25  C   UNL     1      46.100   6.191  10.913  0.00  0.00    +0.000 C 
BRANCH  25  26
ATOM     26  N   UNL     1      44.822   5.467  11.101  0.00  0.00    +0.000 NA
ATOM     27  C   UNL     1      45.008   4.013  10.949  0.00  0.00    +0.000 C 
ATOM     28  C   UNL     1      43.755   3.208  11.301  0.00  0.00    +0.000 C 
ATOM     29  C   UNL     1      43.260   3.554  12.697  0.00  0.00    +0.000 C 
ATOM     30  C   UNL     1      43.012   5.051  12.785  0.00  0.00    +0.000 C 
ATOM     31  C   UNL     1      44.264   5.841  12.409  0.00  0.00    +0.000 C 
ENDBRANCH  25  26
ENDBRANCH  22  25
ENDBRANCH  18  19
ENDBRANCH   1  18
TORSDOF 7
ENDMDL
