MODEL 1
REMARK VINA RESULT:    -7.107      0.000      0.000
REMARK INTER + INTRA:          -9.954
REMARK INTER:                  -8.769
REMARK INTRA:                  -1.186
REMARK UNBOUND:                -1.186
REMARK  Name = 
REMARK  4 active torsions:
REMARK  status: ('A' for Active; 'I' for Inactive)
REMARK    1  A    between atoms: C_8  and  N_9
REMARK    2  A    between atoms: N_9  and  C_10
REMARK    3  A    between atoms: C_10  and  C_11
REMARK    4  A    between atoms: C_15  and  C_16
REMARK                            x       y       z     vdW  Elec       q    Type
REMARK                         _______ _______ _______ _____ _____    ______ ____
ROOT
ATOM      1  C   UNL     1      46.282   7.295  12.556  0.00  0.00    +0.000 C 
ATOM      2  C   UNL     1      47.358   6.765  13.507  0.00  0.00    +0.000 C 
ATOM      3  C   UNL     1      47.720   7.119  12.107  0.00  0.00    +0.000 C 
ENDROOT
BRANCH   1   4
ATOM      4  C   UNL     1      45.238   6.250  12.159  0.00  0.00    +0.000 A 
ATOM      5  C   UNL     1      43.980   6.174  12.774  0.00  0.00    +0.000 A 
ATOM      6  C   UNL     1      42.986   5.326  12.281  0.00  0.00    +0.000 A 
ATOM      7  C   UNL     1      43.236   4.524  11.170  0.00  0.00    +0.000 A 
ATOM      8  C   UNL     1      44.492   4.535  10.550  0.00  0.00    +0.000 A 
ATOM      9  C   UNL     1      45.482   5.384  11.072  0.00  0.00    +0.000 A 
BRANCH   8  10
ATOM     10  C   UNL     1      44.768   3.749   9.282  0.00  0.00    +0.000 C 
ATOM     11  C   UNL     1      45.152   2.301   9.621  0.00  0.00    +0.000 C 
ATOM     12  C   UNL     1      45.534   1.528   8.369  0.00  0.00    +0.000 C 
ATOM     13  O   UNL     1      46.566   2.205   7.653  0.00  0.00    +0.000 OA
ATOM     14  C   UNL     1      46.149   3.493   7.201  0.00  0.00    +0.000 C 
ATOM     15  C   UNL     1      45.829   4.399   8.383  0.00  0.00    +0.000 C 
ENDBRANCH   8  10
ENDBRANCH   1   4
BRANCH   1  16
ATOM     16  N   UNL     1      45.709   8.604  12.942  0.00  0.00    +0.000 N 
ATOM     17  H   UNL     1      44.929   8.520  13.596  0.00  0.00    +0.000 HD
BRANCH  16  25
ATOM     18 CL   UNL     1      42.707  10.667   9.282  0.00  0.00    +0.000 Cl
ATOM     19  C   UNL     1      44.121  10.679  10.262  0.00  0.00    +0.000 A 
ATOM     20  C   UNL     1      45.100  11.641  10.037  0.00  0.00    +0.000 A 
ATOM     21  C   UNL     1      46.258  11.633  10.810  0.00  0.00    +0.000 A 
ATOM     22 CL   UNL     1      47.441  12.850  10.485  0.00  0.00    +0.000 Cl
ATOM     23  C   UNL     1      46.439  10.650  11.799  0.00  0.00    +0.000 A 
ATOM     24 CL   UNL     1      47.882  10.622  12.771  0.00  0.00    +0.000 Cl
ATOM     25  C   UNL     1      45.444   9.668  12.034  0.00  0.00    +0.000 A 
ATOM     26  C   UNL     1      44.284   9.707  11.253  0.00  0.00    +0.000 A 
ENDBRANCH  16  25
ENDBRANCH   1  16
TORSDOF 4
ENDMDL
MODEL 2
REMARK VINA RESULT:    -7.022      2.838      4.933
REMARK INTER + INTRA:          -9.849
REMARK INTER:                  -8.768
REMARK INTRA:                  -1.081
REMARK UNBOUND:                -1.186
REMARK  Name = 
REMARK  4 active torsions:
REMARK  status: ('A' for Active; 'I' for Inactive)
REMARK    1  A    between atoms: C_8  and  N_9
REMARK    2  A    between atoms: N_9  and  C_10
REMARK    3  A    between atoms: C_10  and  C_11
REMARK    4  A    between atoms: C_15  and  C_16
REMARK                            x       y       z     vdW  Elec       q    Type
REMARK                         _______ _______ _______ _____ _____    ______ ____
ROOT
ATOM      1  C   UNL     1      46.363   7.057  12.763  0.00  0.00    +0.000 C 
ATOM      2  C   UNL     1      46.535   8.312  11.904  0.00  0.00    +0.000 C 
ATOM      3  C   UNL     1      45.986   8.430  13.283  0.00  0.00    +0.000 C 
ENDROOT
BRANCH   1   4
ATOM      4  C   UNL     1      45.265   6.114  12.268  0.00  0.00    +0.000 A 
ATOM      5  C   UNL     1      43.969   6.122  12.805  0.00  0.00    +0.000 A 
ATOM      6  C   UNL     1      42.942   5.375  12.226  0.00  0.00    +0.000 A 
ATOM      7  C   UNL     1      43.195   4.590  11.103  0.00  0.00    +0.000 A 
ATOM      8  C   UNL     1      44.483   4.518  10.558  0.00  0.00    +0.000 A 
ATOM      9  C   UNL     1      45.504   5.266  11.167  0.00  0.00    +0.000 A 
BRANCH   8  10
ATOM     10  C   UNL     1      44.772   3.751   9.281  0.00  0.00    +0.000 C 
ATOM     11  C   UNL     1      45.133   2.293   9.600  0.00  0.00    +0.000 C 
ATOM     12  C   UNL     1      45.528   1.539   8.340  0.00  0.00    +0.000 C 
ATOM     13  O   UNL     1      46.580   2.216   7.655  0.00  0.00    +0.000 OA
ATOM     14  C   UNL     1      46.186   3.516   7.219  0.00  0.00    +0.000 C 
ATOM     15  C   UNL     1      45.856   4.405   8.413  0.00  0.00    +0.000 C 
ENDBRANCH   8  10
ENDBRANCH   1   4
BRANCH   1  16
ATOM     16  N   UNL     1      47.628   6.375  13.119  0.00  0.00    +0.000 N 
ATOM     17  H   UNL     1      47.853   5.601  12.493  0.00  0.00    +0.000 HD
BRANCH  16  25
ATOM     18 CL   UNL     1      47.028   3.361  17.269  0.00  0.00    +0.000 Cl
ATOM     19  C   UNL     1      47.752   4.698  16.463  0.00  0.00    +0.000 A 
ATOM     20  C   UNL     1      48.585   5.554  17.174  0.00  0.00    +0.000 A 
ATOM     21  C   UNL     1      49.148   6.654  16.530  0.00  0.00    +0.000 A 
ATOM     22 CL   UNL     1      50.173   7.685  17.464  0.00  0.00    +0.000 Cl
ATOM     23  C   UNL     1      48.861   6.900  15.176  0.00  0.00    +0.000 A 
ATOM     24 CL   UNL     1      49.551   8.272  14.357  0.00  0.00    +0.000 Cl
ATOM     25  C   UNL     1      48.013   6.030  14.446  0.00  0.00    +0.000 A 
ATOM     26  C   UNL     1      47.472   4.926  15.113  0.00  0.00    +0.000 A 
ENDBRANCH  16  25
ENDBRANCH   1  16
TORSDOF 4
ENDMDL
MODEL 3
REMARK VINA RESULT:    -7.019      3.328      5.379
REMARK INTER + INTRA:          -9.846
REMARK INTER:                  -8.797
REMARK INTRA:                  -1.049
REMARK UNBOUND:                -1.186
REMARK  Name = 
REMARK  4 active torsions:
REMARK  status: ('A' for Active; 'I' for Inactive)
REMARK    1  A    between atoms: C_8  and  N_9
REMARK    2  A    between atoms: N_9  and  C_10
REMARK    3  A    between atoms: C_10  and  C_11
REMARK    4  A    between atoms: C_15  and  C_16
REMARK                            x       y       z     vdW  Elec       q    Type
REMARK                         _______ _______ _______ _____ _____    ______ ____
ROOT
ATOM      1  C   UNL     1      46.332   7.095  12.754  0.00  0.00    +0.000 C 
ATOM      2  C   UNL     1      46.558   8.288  11.821  0.00  0.00    +0.000 C 
ATOM      3  C   UNL     1      45.951   8.505  13.163  0.00  0.00    +0.000 C 
ENDROOT
BRANCH   1   4
ATOM      4  C   UNL     1      45.244   6.132  12.276  0.00  0.00    +0.000 A 
ATOM      5  C   UNL     1      43.953   6.124  12.824  0.00  0.00    +0.000 A 
ATOM      6  C   UNL     1      42.934   5.357  12.258  0.00  0.00    +0.000 A 
ATOM      7  C   UNL     1      43.189   4.568  11.139  0.00  0.00    +0.000 A 
ATOM      8  C   UNL     1      44.473   4.512  10.584  0.00  0.00    +0.000 A 
ATOM      9  C   UNL     1      45.487   5.279  11.178  0.00  0.00    +0.000 A 
BRANCH   8  10
ATOM     10  C   UNL     1      44.763   3.741   9.309  0.00  0.00    +0.000 C 
ATOM     11  C   UNL     1      45.158   2.292   9.636  0.00  0.00    +0.000 C 
ATOM     12  C   UNL     1      45.554   1.536   8.378  0.00  0.00    +0.000 C 
ATOM     13  O   UNL     1      46.584   2.230   7.675  0.00  0.00    +0.000 OA
ATOM     14  C   UNL     1      46.157   3.518   7.233  0.00  0.00    +0.000 C 
ATOM     15  C   UNL     1      45.823   4.409   8.423  0.00  0.00    +0.000 C 
ENDBRANCH   8  10
ENDBRANCH   1   4
BRANCH   1  16
ATOM     16  N   UNL     1      47.571   6.427  13.212  0.00  0.00    +0.000 N 
ATOM     17  H   UNL     1      47.826   5.623  12.636  0.00  0.00    +0.000 HD
BRANCH  16  25
ATOM     18 CL   UNL     1      49.873   7.822  17.619  0.00  0.00    +0.000 Cl
ATOM     19  C   UNL     1      48.988   6.694  16.666  0.00  0.00    +0.000 A 
ATOM     20  C   UNL     1      48.731   5.426  17.172  0.00  0.00    +0.000 A 
ATOM     21  C   UNL     1      48.041   4.503  16.389  0.00  0.00    +0.000 A 
ATOM     22 CL   UNL     1      47.752   2.940  17.069  0.00  0.00    +0.000 Cl
ATOM     23  C   UNL     1      47.623   4.851  15.094  0.00  0.00    +0.000 A 
ATOM     24 CL   UNL     1      46.764   3.710  14.100  0.00  0.00    +0.000 Cl
ATOM     25  C   UNL     1      47.881   6.144  14.573  0.00  0.00    +0.000 A 
ATOM     26  C   UNL     1      48.563   7.056  15.385  0.00  0.00    +0.000 A 
ENDBRANCH  16  25
ENDBRANCH   1  16
TORSDOF 4
ENDMDL
MODEL 4
REMARK VINA RESULT:    -6.754      0.827      2.149
REMARK INTER + INTRA:          -9.519
REMARK INTER:                  -8.482
REMARK INTRA:                  -1.037
REMARK UNBOUND:                -1.186
REMARK  Name = 
REMARK  4 active torsions:
REMARK  status: ('A' for Active; 'I' for Inactive)
REMARK    1  A    between atoms: C_8  and  N_9
REMARK    2  A    between atoms: N_9  and  C_10
REMARK    3  A    between atoms: C_10  and  C_11
REMARK    4  A    between atoms: C_15  and  C_16
REMARK                            x       y       z     vdW  Elec       q    Type
REMARK                         _______ _______ _______ _____ _____    ______ ____
ROOT
ATOM      1  C   UNL     1      46.157   7.299  12.226  0.00  0.00    +0.000 C 
ATOM      2  C   UNL     1      47.181   6.805  13.250  0.00  0.00    +0.000 C 
ATOM      3  C   UNL     1      47.628   7.175  11.879  0.00  0.00    +0.000 C 
ENDROOT
BRANCH   1   4
ATOM      4  C   UNL     1      45.181   6.219  11.755  0.00  0.00    +0.000 A 
ATOM      5  C   UNL     1      43.878   6.112  12.263  0.00  0.00    +0.000 A 
ATOM      6  C   UNL     1      42.955   5.229  11.699  0.00  0.00    +0.000 A 
ATOM      7  C   UNL     1      43.321   4.423  10.624  0.00  0.00    +0.000 A 
ATOM      8  C   UNL     1      44.624   4.467  10.112  0.00  0.00    +0.000 A 
ATOM      9  C   UNL     1      45.541   5.350  10.704  0.00  0.00    +0.000 A 
BRANCH   8  10
ATOM     10  C   UNL     1      45.029   3.676   8.882  0.00  0.00    +0.000 C 
ATOM     11  C   UNL     1      45.453   2.252   9.274  0.00  0.00    +0.000 C 
ATOM     12  C   UNL     1      45.962   1.480   8.067  0.00  0.00    +0.000 C 
ATOM     13  O   UNL     1      47.012   2.195   7.417  0.00  0.00    +0.000 OA
ATOM     14  C   UNL     1      46.571   3.454   6.912  0.00  0.00    +0.000 C 
ATOM     15  C   UNL     1      46.123   4.362   8.052  0.00  0.00    +0.000 C 
ENDBRANCH   8  10
ENDBRANCH   1   4
BRANCH   1  16
ATOM     16  N   UNL     1      45.512   8.587  12.570  0.00  0.00    +0.000 N 
ATOM     17  H   UNL     1      44.531   8.482  12.835  0.00  0.00    +0.000 HD
BRANCH  16  25
ATOM     18 CL   UNL     1      48.190  12.904  11.643  0.00  0.00    +0.000 Cl
ATOM     19  C   UNL     1      46.835  11.877  11.373  0.00  0.00    +0.000 A 
ATOM     20  C   UNL     1      45.798  12.315  10.558  0.00  0.00    +0.000 A 
ATOM     21  C   UNL     1      44.688  11.496  10.362  0.00  0.00    +0.000 A 
ATOM     22 CL   UNL     1      43.428  12.093   9.341  0.00  0.00    +0.000 Cl
ATOM     23  C   UNL     1      44.615  10.245  10.998  0.00  0.00    +0.000 A 
ATOM     24 CL   UNL     1      43.233   9.211  10.769  0.00  0.00    +0.000 Cl
ATOM     25  C   UNL     1      45.670   9.792  11.829  0.00  0.00    +0.000 A 
ATOM     26  C   UNL     1      46.779  10.628  11.997  0.00  0.00    +0.000 A 
ENDBRANCH  16  25
ENDBRANCH   1  16
TORSDOF 4
ENDMDL
MODEL 5
REMARK VINA RESULT:    -6.129      3.536      5.967
REMARK INTER + INTRA:          -8.748
REMARK INTER:                  -7.590
REMARK INTRA:                  -1.158
REMARK UNBOUND:                -1.186
REMARK  Name = 
REMARK  4 active torsions:
REMARK  status: ('A' for Active; 'I' for Inactive)
REMARK    1  A    between atoms: C_8  and  N_9
REMARK    2  A    between atoms: N_9  and  C_10
REMARK    3  A    between atoms: C_10  and  C_11
REMARK    4  A    between atoms: C_15  and  C_16
REMARK                            x       y       z     vdW  Elec       q    Type
REMARK                         _______ _______ _______ _____ _____    ______ ____
ROOT
ATOM      1  C   UNL     1      48.421   7.777  12.868  0.00  0.00    +0.000 C 
ATOM      2  C   UNL     1      49.405   8.125  11.749  0.00  0.00    +0.000 C 
ATOM      3  C   UNL     1      49.294   9.015  12.938  0.00  0.00    +0.000 C 
ENDROOT
BRANCH   1   4
ATOM      4  C   UNL     1      46.951   7.915  12.465  0.00  0.00    +0.000 A 
ATOM      5  C   UNL     1      46.317   9.162  12.354  0.00  0.00    +0.000 A 
ATOM      6  C   UNL     1      45.031   9.272  11.824  0.00  0.00    +0.000 A 
ATOM      7  C   UNL     1      44.345   8.134  11.406  0.00  0.00    +0.000 A 
ATOM      8  C   UNL     1      44.922   6.865  11.537  0.00  0.00    +0.000 A 
ATOM      9  C   UNL     1      46.210   6.775  12.088  0.00  0.00    +0.000 A 
BRANCH   8  10
ATOM     10  C   UNL     1      44.244   5.617  11.004  0.00  0.00    +0.000 C 
ATOM     11  C   UNL     1      43.862   4.678  12.159  0.00  0.00    +0.000 C 
ATOM     12  C   UNL     1      43.278   3.376  11.635  0.00  0.00    +0.000 C 
ATOM     13  O   UNL     1      44.172   2.757  10.711  0.00  0.00    +0.000 OA
ATOM     14  C   UNL     1      44.399   3.568   9.559  0.00  0.00    +0.000 C 
ATOM     15  C   UNL     1      45.079   4.875   9.950  0.00  0.00    +0.000 C 
ENDBRANCH   8  10
ENDBRANCH   1   4
BRANCH   1  16
ATOM     16  N   UNL     1      48.731   6.525  13.595  0.00  0.00    +0.000 N 
ATOM     17  H   UNL     1      48.447   5.687  13.085  0.00  0.00    +0.000 HD
BRANCH  16  25
ATOM     18 CL   UNL     1      49.600   7.959  18.479  0.00  0.00    +0.000 Cl
ATOM     19  C   UNL     1      48.915   6.892  17.315  0.00  0.00    +0.000 A 
ATOM     20  C   UNL     1      48.293   5.725  17.742  0.00  0.00    +0.000 A 
ATOM     21  C   UNL     1      47.764   4.846  16.799  0.00  0.00    +0.000 A 
ATOM     22 CL   UNL     1      47.004   3.410  17.386  0.00  0.00    +0.000 Cl
ATOM     23  C   UNL     1      47.876   5.134  15.427  0.00  0.00    +0.000 A 
ATOM     24 CL   UNL     1      47.226   4.045  14.235  0.00  0.00    +0.000 Cl
ATOM     25  C   UNL     1      48.508   6.323  14.986  0.00  0.00    +0.000 A 
ATOM     26  C   UNL     1      49.018   7.195  15.955  0.00  0.00    +0.000 A 
ENDBRANCH  16  25
ENDBRANCH   1  16
TORSDOF 4
ENDMDL
MODEL 6
REMARK VINA RESULT:    -5.959      3.491      5.682
REMARK INTER + INTRA:          -8.537
REMARK INTER:                  -7.531
REMARK INTRA:                  -1.007
REMARK UNBOUND:                -1.186
REMARK  Name = 
REMARK  4 active torsions:
REMARK  status: ('A' for Active; 'I' for Inactive)
REMARK    1  A    between atoms: C_8  and  N_9
REMARK    2  A    between atoms: N_9  and  C_10
REMARK    3  A    between atoms: C_10  and  C_11
REMARK    4  A    between atoms: C_15  and  C_16
REMARK                            x       y       z     vdW  Elec       q    Type
REMARK                         _______ _______ _______ _____ _____    ______ ____
ROOT
ATOM      1  C   UNL     1      49.409   7.900  12.802  0.00  0.00    +0.000 C 
ATOM      2  C   UNL     1      50.012   7.625  11.423  0.00  0.00    +0.000 C 
ATOM      3  C   UNL     1      49.980   9.017  11.949  0.00  0.00    +0.000 C 
ENDROOT
BRANCH   1   4
ATOM      4  C   UNL     1      47.893   7.704  12.865  0.00  0.00    +0.000 A 
ATOM      5  C   UNL     1      47.006   8.766  13.095  0.00  0.00    +0.000 A 
ATOM      6  C   UNL     1      45.626   8.592  12.979  0.00  0.00    +0.000 A 
ATOM      7  C   UNL     1      45.102   7.345  12.646  0.00  0.00    +0.000 A 
ATOM      8  C   UNL     1      45.947   6.246  12.450  0.00  0.00    +0.000 A 
ATOM      9  C   UNL     1      47.331   6.440  12.586  0.00  0.00    +0.000 A 
BRANCH   8  10
ATOM     10  C   UNL     1      45.418   4.899  11.992  0.00  0.00    +0.000 C 
ATOM     11  C   UNL     1      44.996   4.963  10.516  0.00  0.00    +0.000 C 
ATOM     12  C   UNL     1      44.365   3.652  10.071  0.00  0.00    +0.000 C 
ATOM     13  O   UNL     1      43.281   3.298  10.927  0.00  0.00    +0.000 OA
ATOM     14  C   UNL     1      43.706   3.084  12.272  0.00  0.00    +0.000 C 
ATOM     15  C   UNL     1      44.273   4.368  12.865  0.00  0.00    +0.000 C 
ENDBRANCH   8  10
ENDBRANCH   1   4
BRANCH   1  16
ATOM     16  N   UNL     1      50.144   7.287  13.931  0.00  0.00    +0.000 N 
ATOM     17  H   UNL     1      50.503   6.356  13.713  0.00  0.00    +0.000 HD
BRANCH  16  25
ATOM     18 CL   UNL     1      47.656   5.009  17.841  0.00  0.00    +0.000 Cl
ATOM     19  C   UNL     1      48.506   6.343  17.161  0.00  0.00    +0.000 A 
ATOM     20  C   UNL     1      48.612   7.525  17.884  0.00  0.00    +0.000 A 
ATOM     21  C   UNL     1      49.274   8.615  17.322  0.00  0.00    +0.000 A 
ATOM     22 CL   UNL     1      49.373  10.059  18.265  0.00  0.00    +0.000 Cl
ATOM     23  C   UNL     1      49.816   8.519  16.028  0.00  0.00    +0.000 A 
ATOM     24 CL   UNL     1      50.642   9.871  15.309  0.00  0.00    +0.000 Cl
ATOM     25  C   UNL     1      49.712   7.316  15.287  0.00  0.00    +0.000 A 
ATOM     26  C   UNL     1      49.054   6.232  15.880  0.00  0.00    +0.000 A 
ENDBRANCH  16  25
ENDBRANCH   1  16
TORSDOF 4
ENDMDL
MODEL 7
REMARK VINA RESULT:    -5.944      3.633      5.938
REMARK INTER + INTRA:          -8.520
REMARK INTER:                  -7.439
REMARK INTRA:                  -1.080
REMARK UNBOUND:                -1.186
REMARK  Name = 
REMARK  4 active torsions:
REMARK  status: ('A' for Active; 'I' for Inactive)
REMARK    1  A    between atoms: C_8  and  N_9
REMARK    2  A    between atoms: N_9  and  C_10
REMARK    3  A    between atoms: C_10  and  C_11
REMARK    4  A    between atoms: C_15  and  C_16
REMARK                            x       y       z     vdW  Elec       q    Type
REMARK                         _______ _______ _______ _____ _____    ______ ____
ROOT
ATOM      1  C   UNL     1      49.276   7.829  12.712  0.00  0.00    +0.000 C 
ATOM      2  C   UNL     1      50.032   7.551  11.411  0.00  0.00    +0.000 C 
ATOM      3  C   UNL     1      49.965   8.940  11.944  0.00  0.00    +0.000 C 
ENDROOT
BRANCH   1   4
ATOM      4  C   UNL     1      47.759   7.664  12.595  0.00  0.00    +0.000 A 
ATOM      5  C   UNL     1      46.888   8.761  12.520  0.00  0.00    +0.000 A 
ATOM      6  C   UNL     1      45.531   8.586  12.243  0.00  0.00    +0.000 A 
ATOM      7  C   UNL     1      45.013   7.307  12.051  0.00  0.00    +0.000 A 
ATOM      8  C   UNL     1      45.838   6.181  12.158  0.00  0.00    +0.000 A 
ATOM      9  C   UNL     1      47.197   6.378  12.452  0.00  0.00    +0.000 A 
BRANCH   8  10
ATOM     10  C   UNL     1      45.329   4.783  11.859  0.00  0.00    +0.000 C 
ATOM     11  C   UNL     1      44.921   4.664  10.383  0.00  0.00    +0.000 C 
ATOM     12  C   UNL     1      44.310   3.303  10.091  0.00  0.00    +0.000 C 
ATOM     13  O   UNL     1      43.221   3.039  10.974  0.00  0.00    +0.000 OA
ATOM     14  C   UNL     1      43.635   2.992  12.338  0.00  0.00    +0.000 C 
ATOM     15  C   UNL     1      44.181   4.344  12.780  0.00  0.00    +0.000 C 
ENDBRANCH   8  10
ENDBRANCH   1   4
BRANCH   1  16
ATOM     16  N   UNL     1      49.860   7.192  13.914  0.00  0.00    +0.000 N 
ATOM     17  H   UNL     1      49.750   6.177  13.920  0.00  0.00    +0.000 HD
BRANCH  16  25
ATOM     18 CL   UNL     1      51.203  10.610  17.545  0.00  0.00    +0.000 Cl
ATOM     19  C   UNL     1      50.337   9.216  17.026  0.00  0.00    +0.000 A 
ATOM     20  C   UNL     1      49.633   8.463  17.959  0.00  0.00    +0.000 A 
ATOM     21  C   UNL     1      48.957   7.317  17.545  0.00  0.00    +0.000 A 
ATOM     22 CL   UNL     1      48.101   6.420  18.748  0.00  0.00    +0.000 Cl
ATOM     23  C   UNL     1      49.000   6.922  16.197  0.00  0.00    +0.000 A 
ATOM     24 CL   UNL     1      48.166   5.492  15.663  0.00  0.00    +0.000 Cl
ATOM     25  C   UNL     1      49.716   7.686  15.241  0.00  0.00    +0.000 A 
ATOM     26  C   UNL     1      50.374   8.839  15.681  0.00  0.00    +0.000 A 
ENDBRANCH  16  25
ENDBRANCH   1  16
TORSDOF 4
ENDMDL
MODEL 8
REMARK VINA RESULT:    -5.653      5.150      7.414
REMARK INTER + INTRA:          -8.160
REMARK INTER:                  -7.414
REMARK INTRA:                  -0.747
REMARK UNBOUND:                -1.186
REMARK  Name = 
REMARK  4 active torsions:
REMARK  status: ('A' for Active; 'I' for Inactive)
REMARK    1  A    between atoms: C_8  and  N_9
REMARK    2  A    between atoms: N_9  and  C_10
REMARK    3  A    between atoms: C_10  and  C_11
REMARK    4  A    between atoms: C_15  and  C_16
REMARK                            x       y       z     vdW  Elec       q    Type
REMARK                         _______ _______ _______ _____ _____    ______ ____
ROOT
ATOM      1  C   UNL     1      47.862   4.461  17.039  0.00  0.00    +0.000 C 
ATOM      2  C   UNL     1      47.819   2.933  16.960  0.00  0.00    +0.000 C 
ATOM      3  C   UNL     1      49.102   3.620  17.272  0.00  0.00    +0.000 C 
ENDROOT
BRANCH   1   4
ATOM      4  C   UNL     1      47.669   5.156  15.690  0.00  0.00    +0.000 A 
ATOM      5  C   UNL     1      48.482   6.218  15.268  0.00  0.00    +0.000 A 
ATOM      6  C   UNL     1      48.396   6.721  13.969  0.00  0.00    +0.000 A 
ATOM      7  C   UNL     1      47.482   6.181  13.067  0.00  0.00    +0.000 A 
ATOM      8  C   UNL     1      46.621   5.149  13.457  0.00  0.00    +0.000 A 
ATOM      9  C   UNL     1      46.713   4.668  14.773  0.00  0.00    +0.000 A 
BRANCH   8  10
ATOM     10  C   UNL     1      45.683   4.473  12.474  0.00  0.00    +0.000 C 
ATOM     11  C   UNL     1      45.607   5.275  11.166  0.00  0.00    +0.000 C 
ATOM     12  C   UNL     1      44.591   4.669  10.211  0.00  0.00    +0.000 C 
ATOM     13  O   UNL     1      43.317   4.546  10.841  0.00  0.00    +0.000 OA
ATOM     14  C   UNL     1      43.358   3.670  11.966  0.00  0.00    +0.000 C 
ATOM     15  C   UNL     1      44.279   4.227  13.045  0.00  0.00    +0.000 C 
ENDBRANCH   8  10
ENDBRANCH   1   4
BRANCH   1  16
ATOM     16  N   UNL     1      47.061   5.045  18.138  0.00  0.00    +0.000 N 
ATOM     17  H   UNL     1      46.075   5.159  17.896  0.00  0.00    +0.000 HD
BRANCH  16  25
ATOM     18 CL   UNL     1      47.591  10.147  18.737  0.00  0.00    +0.000 Cl
ATOM     19  C   UNL     1      47.818   8.529  19.279  0.00  0.00    +0.000 A 
ATOM     20  C   UNL     1      48.570   8.291  20.423  0.00  0.00    +0.000 A 
ATOM     21  C   UNL     1      48.779   6.979  20.845  0.00  0.00    +0.000 A 
ATOM     22 CL   UNL     1      49.724   6.743  22.272  0.00  0.00    +0.000 Cl
ATOM     23  C   UNL     1      48.243   5.909  20.108  0.00  0.00    +0.000 A 
ATOM     24 CL   UNL     1      48.498   4.264  20.618  0.00  0.00    +0.000 Cl
ATOM     25  C   UNL     1      47.474   6.145  18.942  0.00  0.00    +0.000 A 
ATOM     26  C   UNL     1      47.268   7.472  18.548  0.00  0.00    +0.000 A 
ENDBRANCH  16  25
ENDBRANCH   1  16
TORSDOF 4
ENDMDL
MODEL 9
REMARK VINA RESULT:    -5.551      4.927      7.498
REMARK INTER + INTRA:          -8.034
REMARK INTER:                  -7.055
REMARK INTRA:                  -0.980
REMARK UNBOUND:                -1.186
REMARK  Name = 
REMARK  4 active torsions:
REMARK  status: ('A' for Active; 'I' for Inactive)
REMARK    1  A    between atoms: C_8  and  N_9
REMARK    2  A    between atoms: N_9  and  C_10
REMARK    3  A    between atoms: C_10  and  C_11
REMARK    4  A    between atoms: C_15  and  C_16
REMARK                            x       y       z     vdW  Elec       q    Type
REMARK                         _______ _______ _______ _____ _____    ______ ____
ROOT
ATOM      1  C   UNL     1      49.145   8.405  15.666  0.00  0.00    +0.000 C 
ATOM      2  C   UNL     1      49.280   9.892  16.001  0.00  0.00    +0.000 C 
ATOM      3  C   UNL     1      48.105   9.126  16.501  0.00  0.00    +0.000 C 
ENDROOT
BRANCH   1   4
ATOM      4  C   UNL     1      48.860   8.126  14.189  0.00  0.00    +0.000 A 
ATOM      5  C   UNL     1      49.785   8.424  13.177  0.00  0.00    +0.000 A 
ATOM      6  C   UNL     1      49.574   8.007  11.861  0.00  0.00    +0.000 A 
ATOM      7  C   UNL     1      48.423   7.296  11.527  0.00  0.00    +0.000 A 
ATOM      8  C   UNL     1      47.453   7.014  12.496  0.00  0.00    +0.000 A 
ATOM      9  C   UNL     1      47.678   7.456  13.810  0.00  0.00    +0.000 A 
BRANCH   8  10
ATOM     10  C   UNL     1      46.237   6.160  12.188  0.00  0.00    +0.000 C 
ATOM     11  C   UNL     1      45.041   7.046  11.807  0.00  0.00    +0.000 C 
ATOM     12  C   UNL     1      43.787   6.212  11.599  0.00  0.00    +0.000 C 
ATOM     13  O   UNL     1      43.518   5.409  12.747  0.00  0.00    +0.000 OA
ATOM     14  C   UNL     1      44.565   4.474  13.005  0.00  0.00    +0.000 C 
ATOM     15  C   UNL     1      45.865   5.201  13.327  0.00  0.00    +0.000 C 
ENDBRANCH   8  10
ENDBRANCH   1   4
BRANCH   1  16
ATOM     16  N   UNL     1      50.197   7.542  16.250  0.00  0.00    +0.000 N 
ATOM     17  H   UNL     1      51.099   7.643  15.783  0.00  0.00    +0.000 HD
BRANCH  16  25
ATOM     18 CL   UNL     1      46.995   3.646  17.361  0.00  0.00    +0.000 Cl
ATOM     19  C   UNL     1      48.577   4.310  17.218  0.00  0.00    +0.000 A 
ATOM     20  C   UNL     1      49.671   3.565  17.641  0.00  0.00    +0.000 A 
ATOM     21  C   UNL     1      50.949   4.114  17.554  0.00  0.00    +0.000 A 
ATOM     22 CL   UNL     1      52.271   3.144  18.097  0.00  0.00    +0.000 Cl
ATOM     23  C   UNL     1      51.123   5.416  17.055  0.00  0.00    +0.000 A 
ATOM     24 CL   UNL     1      52.711   6.120  16.943  0.00  0.00    +0.000 Cl
ATOM     25  C   UNL     1      50.011   6.180  16.620  0.00  0.00    +0.000 A 
ATOM     26  C   UNL     1      48.741   5.600  16.706  0.00  0.00    +0.000 A 
ENDBRANCH  16  25
ENDBRANCH   1  16
TORSDOF 4
ENDMDL
