MODEL 1
REMARK VINA RESULT:    -7.038      0.000      0.000
REMARK INTER + INTRA:         -11.293
REMARK INTER:                  -9.918
REMARK INTRA:                  -1.375
REMARK UNBOUND:                -1.375
REMARK  Name = 
REMARK  8 active torsions:
REMARK  status: ('A' for Active; 'I' for Inactive)
REMARK    1  A    between atoms: C_1  and  C_2
REMARK    2  A    between atoms: C_2  and  N_3
REMARK    3  A    between atoms: C_2  and  C_18
REMARK    4  A    between atoms: N_3  and  C_4
REMARK    5  A    between atoms: C_7  and  C_8
REMARK    6  A    between atoms: C_8  and  N_9
REMARK    7  A    between atoms: N_9  and  C_10
REMARK    8  A    between atoms: C_18  and  C_20
REMARK                            x       y       z     vdW  Elec       q    Type
REMARK                         _______ _______ _______ _____ _____    ______ ____
ROOT
ATOM      1  N   UNL     1      47.215   6.560  13.965  0.00  0.00    +0.000 N 
ATOM      2  H   UNL     1      47.264   7.535  14.260  0.00  0.00    +0.000 HD
ENDROOT
BRANCH   1   3
ATOM      3  C   UNL     1      47.615   5.685  14.970  0.00  0.00    +0.000 A 
ATOM      4  C   UNL     1      48.421   6.183  16.003  0.00  0.00    +0.000 A 
ATOM      5  C   UNL     1      48.828   5.376  17.070  0.00  0.00    +0.000 A 
ATOM      6  C   UNL     1      48.381   4.055  17.178  0.00  0.00    +0.000 A 
ATOM      7  C   UNL     1      47.548   3.558  16.168  0.00  0.00    +0.000 A 
ATOM      8  C   UNL     1      47.166   4.366  15.085  0.00  0.00    +0.000 A 
BRANCH   6   9
ATOM      9  C   UNL     1      48.799   3.169  18.333  0.00  0.00    +0.000 C 
BRANCH   9  10
ATOM     10  N   UNL     1      50.234   3.277  18.594  0.00  0.00    +0.000 NA
ATOM     11  H   UNL     1      50.472   2.610  19.327  0.00  0.00    +0.000 HD
BRANCH  10  12
ATOM     12  C   UNL     1      51.099   3.085  17.424  0.00  0.00    +0.000 C 
ATOM     13  C   UNL     1      51.197   1.633  16.933  0.00  0.00    +0.000 C 
ATOM     14  C   UNL     1      51.879   0.738  17.966  0.00  0.00    +0.000 C 
ATOM     15  N   UNL     1      53.228   1.215  18.278  0.00  0.00    +0.000 NA
ATOM     16  C   UNL     1      53.213   2.598  18.766  0.00  0.00    +0.000 C 
ATOM     17  C   UNL     1      52.519   3.556  17.794  0.00  0.00    +0.000 C 
ATOM     18  H   UNL     1      53.798   1.170  17.433  0.00  0.00    +0.000 HD
ENDBRANCH  10  12
ENDBRANCH   9  10
ENDBRANCH   6   9
ENDBRANCH   1   3
BRANCH   1  20
ATOM     19  C   UNL     1      48.837   7.251  12.237  0.00  0.00    +0.000 C 
ATOM     20  C   UNL     1      47.612   6.389  12.551  0.00  0.00    +0.000 C 
BRANCH  20  21
ATOM     21  C   UNL     1      46.414   6.796  11.641  0.00  0.00    +0.000 C 
ATOM     22  O   UNL     1      46.029   7.963  11.611  0.00  0.00    +0.000 OA
BRANCH  21  23
ATOM     23  C   UNL     1      45.708   5.740  10.884  0.00  0.00    +0.000 A 
ATOM     24  C   UNL     1      45.885   5.539   9.522  0.00  0.00    +0.000 A 
ATOM     25  S   UNL     1      45.079   4.163   8.922  0.00  0.00    +0.000 S 
ATOM     26  C   UNL     1      44.453   3.792  10.459  0.00  0.00    +0.000 A 
ATOM     27  N   UNL     1      43.705   2.672  10.651  0.00  0.00    +0.000 NA
ATOM     28  C   UNL     1      43.342   2.483  11.875  0.00  0.00    +0.000 A 
ATOM     29  N   UNL     1      43.629   3.327  12.914  0.00  0.00    +0.000 N 
ATOM     30  C   UNL     1      44.236   4.548  12.737  0.00  0.00    +0.000 A 
ATOM     31  O   UNL     1      44.199   5.392  13.624  0.00  0.00    +0.000 OA
ATOM     32  C   UNL     1      44.801   4.741  11.407  0.00  0.00    +0.000 A 
ATOM     33  H   UNL     1      43.235   3.168  13.829  0.00  0.00    +0.000 HD
ENDBRANCH  21  23
ENDBRANCH  20  21
ENDBRANCH   1  20
TORSDOF 7
ENDMDL
MODEL 2
REMARK VINA RESULT:    -6.786      3.323      8.653
REMARK INTER + INTRA:         -10.938
REMARK INTER:                  -9.596
REMARK INTRA:                  -1.342
REMARK UNBOUND:                -1.375
REMARK  Name = 
REMARK  8 active torsions:
REMARK  status: ('A' for Active; 'I' for Inactive)
REMARK    1  A    between atoms: C_1  and  C_2
REMARK    2  A    between atoms: C_2  and  N_3
REMARK    3  A    between atoms: C_2  and  C_18
REMARK    4  A    between atoms: N_3  and  C_4
REMARK    5  A    between atoms: C_7  and  C_8
REMARK    6  A    between atoms: C_8  and  N_9
REMARK    7  A    between atoms: N_9  and  C_10
REMARK    8  A    between atoms: C_18  and  C_20
REMARK                            x       y       z     vdW  Elec       q    Type
REMARK                         _______ _______ _______ _____ _____    ______ ____
ROOT
ATOM      1  N   UNL     1      48.877   5.770  15.958  0.00  0.00    +0.000 N 
ATOM      2  H   UNL     1      49.878   5.875  15.789  0.00  0.00    +0.000 HD
ENDROOT
BRANCH   1   3
ATOM      3  C   UNL     1      48.125   5.971  14.803  0.00  0.00    +0.000 A 
ATOM      4  C   UNL     1      47.079   5.080  14.529  0.00  0.00    +0.000 A 
ATOM      5  C   UNL     1      46.252   5.241  13.413  0.00  0.00    +0.000 A 
ATOM      6  C   UNL     1      46.400   6.345  12.567  0.00  0.00    +0.000 A 
ATOM      7  C   UNL     1      47.421   7.260  12.853  0.00  0.00    +0.000 A 
ATOM      8  C   UNL     1      48.265   7.077  13.960  0.00  0.00    +0.000 A 
BRANCH   6   9
ATOM      9  C   UNL     1      45.506   6.545  11.361  0.00  0.00    +0.000 C 
BRANCH   9  10
ATOM     10  N   UNL     1      45.464   5.345  10.526  0.00  0.00    +0.000 NA
ATOM     11  H   UNL     1      45.886   4.580  11.052  0.00  0.00    +0.000 HD
BRANCH  10  12
ATOM     12  C   UNL     1      44.132   4.963  10.043  0.00  0.00    +0.000 C 
ATOM     13  C   UNL     1      43.196   4.404  11.124  0.00  0.00    +0.000 C 
ATOM     14  C   UNL     1      43.711   3.076  11.676  0.00  0.00    +0.000 C 
ATOM     15  N   UNL     1      43.849   2.074  10.618  0.00  0.00    +0.000 NA
ATOM     16  C   UNL     1      44.741   2.536   9.549  0.00  0.00    +0.000 C 
ATOM     17  C   UNL     1      44.306   3.881   8.960  0.00  0.00    +0.000 C 
ATOM     18  H   UNL     1      42.928   1.887  10.219  0.00  0.00    +0.000 HD
ENDBRANCH  10  12
ENDBRANCH   9  10
ENDBRANCH   6   9
ENDBRANCH   1   3
BRANCH   1  20
ATOM     19  C   UNL     1      49.178   7.644  17.536  0.00  0.00    +0.000 C 
ATOM     20  C   UNL     1      48.478   6.307  17.276  0.00  0.00    +0.000 C 
BRANCH  20  21
ATOM     21  C   UNL     1      48.859   5.272  18.376  0.00  0.00    +0.000 C 
ATOM     22  O   UNL     1      48.046   4.965  19.245  0.00  0.00    +0.000 OA
BRANCH  21  23
ATOM     23  C   UNL     1      50.236   4.734  18.397  0.00  0.00    +0.000 A 
ATOM     24  C   UNL     1      51.291   5.383  19.023  0.00  0.00    +0.000 A 
ATOM     25  S   UNL     1      52.738   4.482  19.038  0.00  0.00    +0.000 S 
ATOM     26  C   UNL     1      52.010   3.195  18.198  0.00  0.00    +0.000 A 
ATOM     27  N   UNL     1      52.706   2.057  17.934  0.00  0.00    +0.000 NA
ATOM     28  C   UNL     1      52.017   1.142  17.342  0.00  0.00    +0.000 A 
ATOM     29  N   UNL     1      50.709   1.274  16.958  0.00  0.00    +0.000 N 
ATOM     30  C   UNL     1      50.020   2.460  17.054  0.00  0.00    +0.000 A 
ATOM     31  O   UNL     1      48.977   2.622  16.432  0.00  0.00    +0.000 OA
ATOM     32  C   UNL     1      50.697   3.475  17.852  0.00  0.00    +0.000 A 
ATOM     33  H   UNL     1      50.258   0.554  16.414  0.00  0.00    +0.000 HD
ENDBRANCH  21  23
ENDBRANCH  20  21
ENDBRANCH   1  20
TORSDOF 7
ENDMDL
MODEL 3
REMARK VINA RESULT:    -6.772      3.769      8.095
REMARK INTER + INTRA:         -10.918
REMARK INTER:                  -9.365
REMARK INTRA:                  -1.553
REMARK UNBOUND:                -1.375
REMARK  Name = 
REMARK  8 active torsions:
REMARK  status: ('A' for Active; 'I' for Inactive)
REMARK    1  A    between atoms: C_1  and  C_2
REMARK    2  A    between atoms: C_2  and  N_3
REMARK    3  A    between atoms: C_2  and  C_18
REMARK    4  A    between atoms: N_3  and  C_4
REMARK    5  A    between atoms: C_7  and  C_8
REMARK    6  A    between atoms: C_8  and  N_9
REMARK    7  A    between atoms: N_9  and  C_10
REMARK    8  A    between atoms: C_18  and  C_20
REMARK                            x       y       z     vdW  Elec       q    Type
REMARK                         _______ _______ _______ _____ _____    ______ ____
ROOT
ATOM      1  N   UNL     1      48.527   7.583  13.592  0.00  0.00    +0.000 N 
ATOM      2  H   UNL     1      49.342   7.679  12.986  0.00  0.00    +0.000 HD
ENDROOT
BRANCH   1   3
ATOM      3  C   UNL     1      47.608   6.662  13.096  0.00  0.00    +0.000 A 
ATOM      4  C   UNL     1      47.312   5.535  13.874  0.00  0.00    +0.000 A 
ATOM      5  C   UNL     1      46.369   4.588  13.463  0.00  0.00    +0.000 A 
ATOM      6  C   UNL     1      45.635   4.774  12.287  0.00  0.00    +0.000 A 
ATOM      7  C   UNL     1      45.900   5.915  11.520  0.00  0.00    +0.000 A 
ATOM      8  C   UNL     1      46.869   6.848  11.924  0.00  0.00    +0.000 A 
BRANCH   6   9
ATOM      9  C   UNL     1      44.599   3.766  11.832  0.00  0.00    +0.000 C 
BRANCH   9  10
ATOM     10  N   UNL     1      45.164   2.821  10.870  0.00  0.00    +0.000 NA
ATOM     11  H   UNL     1      45.292   1.927  11.345  0.00  0.00    +0.000 HD
BRANCH  10  12
ATOM     12  C   UNL     1      44.389   2.642   9.637  0.00  0.00    +0.000 C 
ATOM     13  C   UNL     1      44.895   1.517   8.722  0.00  0.00    +0.000 C 
ATOM     14  C   UNL     1      46.282   1.830   8.166  0.00  0.00    +0.000 C 
ATOM     15  N   UNL     1      46.284   3.083   7.408  0.00  0.00    +0.000 NA
ATOM     16  C   UNL     1      45.821   4.210   8.224  0.00  0.00    +0.000 C 
ATOM     17  C   UNL     1      44.442   3.960   8.842  0.00  0.00    +0.000 C 
ATOM     18  H   UNL     1      45.664   2.982   6.603  0.00  0.00    +0.000 HD
ENDBRANCH  10  12
ENDBRANCH   9  10
ENDBRANCH   6   9
ENDBRANCH   1   3
BRANCH   1  20
ATOM     19  C   UNL     1      48.225   9.992  13.143  0.00  0.00    +0.000 C 
ATOM     20  C   UNL     1      48.122   8.876  14.185  0.00  0.00    +0.000 C 
BRANCH  20  21
ATOM     21  C   UNL     1      49.049   9.181  15.401  0.00  0.00    +0.000 C 
ATOM     22  O   UNL     1      50.144   9.710  15.226  0.00  0.00    +0.000 OA
BRANCH  21  23
ATOM     23  C   UNL     1      48.616   8.748  16.748  0.00  0.00    +0.000 A 
ATOM     24  C   UNL     1      47.983   9.595  17.646  0.00  0.00    +0.000 A 
ATOM     25  S   UNL     1      47.448   8.814  19.064  0.00  0.00    +0.000 S 
ATOM     26  C   UNL     1      48.054   7.317  18.533  0.00  0.00    +0.000 A 
ATOM     27  N   UNL     1      47.871   6.192  19.275  0.00  0.00    +0.000 NA
ATOM     28  C   UNL     1      48.332   5.118  18.729  0.00  0.00    +0.000 A 
ATOM     29  N   UNL     1      48.988   5.072  17.529  0.00  0.00    +0.000 N 
ATOM     30  C   UNL     1      49.341   6.201  16.828  0.00  0.00    +0.000 A 
ATOM     31  O   UNL     1      50.178   6.140  15.935  0.00  0.00    +0.000 OA
ATOM     32  C   UNL     1      48.714   7.422  17.319  0.00  0.00    +0.000 A 
ATOM     33  H   UNL     1      49.406   4.213  17.204  0.00  0.00    +0.000 HD
ENDBRANCH  21  23
ENDBRANCH  20  21
ENDBRANCH   1  20
TORSDOF 7
ENDMDL
MODEL 4
REMARK VINA RESULT:    -6.620      1.798      2.987
REMARK INTER + INTRA:         -10.704
REMARK INTER:                  -9.641
REMARK INTRA:                  -1.063
REMARK UNBOUND:                -1.375
REMARK  Name = 
REMARK  8 active torsions:
REMARK  status: ('A' for Active; 'I' for Inactive)
REMARK    1  A    between atoms: C_1  and  C_2
REMARK    2  A    between atoms: C_2  and  N_3
REMARK    3  A    between atoms: C_2  and  C_18
REMARK    4  A    between atoms: N_3  and  C_4
REMARK    5  A    between atoms: C_7  and  C_8
REMARK    6  A    between atoms: C_8  and  N_9
REMARK    7  A    between atoms: N_9  and  C_10
REMARK    8  A    between atoms: C_18  and  C_20
REMARK                            x       y       z     vdW  Elec       q    Type
REMARK                         _______ _______ _______ _____ _____    ______ ____
ROOT
ATOM      1  N   UNL     1      46.803   6.478  12.081  0.00  0.00    +0.000 N 
ATOM      2  H   UNL     1      46.407   5.549  11.935  0.00  0.00    +0.000 HD
ENDROOT
BRANCH   1   3
ATOM      3  C   UNL     1      47.615   6.532  13.211  0.00  0.00    +0.000 A 
ATOM      4  C   UNL     1      47.334   5.663  14.273  0.00  0.00    +0.000 A 
ATOM      5  C   UNL     1      48.129   5.628  15.423  0.00  0.00    +0.000 A 
ATOM      6  C   UNL     1      49.281   6.416  15.518  0.00  0.00    +0.000 A 
ATOM      7  C   UNL     1      49.590   7.262  14.447  0.00  0.00    +0.000 A 
ATOM      8  C   UNL     1      48.771   7.312  13.307  0.00  0.00    +0.000 A 
BRANCH   6   9
ATOM      9  C   UNL     1      50.164   6.382  16.749  0.00  0.00    +0.000 C 
BRANCH   9  10
ATOM     10  N   UNL     1      50.825   5.085  16.893  0.00  0.00    +0.000 NA
ATOM     11  H   UNL     1      51.827   5.227  16.768  0.00  0.00    +0.000 HD
BRANCH  10  12
ATOM     12  C   UNL     1      50.559   4.382  18.154  0.00  0.00    +0.000 C 
ATOM     13  C   UNL     1      51.814   3.878  18.881  0.00  0.00    +0.000 C 
ATOM     14  C   UNL     1      52.529   2.796  18.075  0.00  0.00    +0.000 C 
ATOM     15  N   UNL     1      51.651   1.653  17.815  0.00  0.00    +0.000 NA
ATOM     16  C   UNL     1      50.430   2.058  17.111  0.00  0.00    +0.000 C 
ATOM     17  C   UNL     1      49.667   3.164  17.845  0.00  0.00    +0.000 C 
ATOM     18  H   UNL     1      51.391   1.228  18.706  0.00  0.00    +0.000 HD
ENDBRANCH  10  12
ENDBRANCH   9  10
ENDBRANCH   6   9
ENDBRANCH   1   3
BRANCH   1  20
ATOM     19  C   UNL     1      45.680   8.515  12.910  0.00  0.00    +0.000 C 
ATOM     20  C   UNL     1      45.847   7.550  11.732  0.00  0.00    +0.000 C 
BRANCH  20  21
ATOM     21  C   UNL     1      44.478   6.901  11.365  0.00  0.00    +0.000 C 
ATOM     22  O   UNL     1      43.506   7.609  11.114  0.00  0.00    +0.000 OA
BRANCH  21  23
ATOM     23  C   UNL     1      44.358   5.428  11.406  0.00  0.00    +0.000 A 
ATOM     24  C   UNL     1      43.758   4.747  12.456  0.00  0.00    +0.000 A 
ATOM     25  S   UNL     1      43.607   3.071  12.190  0.00  0.00    +0.000 S 
ATOM     26  C   UNL     1      44.350   3.191  10.664  0.00  0.00    +0.000 A 
ATOM     27  N   UNL     1      44.481   2.096   9.869  0.00  0.00    +0.000 NA
ATOM     28  C   UNL     1      45.010   2.340   8.718  0.00  0.00    +0.000 A 
ATOM     29  N   UNL     1      45.451   3.569   8.305  0.00  0.00    +0.000 N 
ATOM     30  C   UNL     1      45.490   4.664   9.135  0.00  0.00    +0.000 A 
ATOM     31  O   UNL     1      46.162   5.645   8.836  0.00  0.00    +0.000 OA
ATOM     32  C   UNL     1      44.766   4.484  10.388  0.00  0.00    +0.000 A 
ATOM     33  H   UNL     1      45.941   3.671   7.429  0.00  0.00    +0.000 HD
ENDBRANCH  21  23
ENDBRANCH  20  21
ENDBRANCH   1  20
TORSDOF 7
ENDMDL
MODEL 5
REMARK VINA RESULT:    -6.398      3.103      8.212
REMARK INTER + INTRA:         -10.391
REMARK INTER:                  -9.129
REMARK INTRA:                  -1.263
REMARK UNBOUND:                -1.375
REMARK  Name = 
REMARK  8 active torsions:
REMARK  status: ('A' for Active; 'I' for Inactive)
REMARK    1  A    between atoms: C_1  and  C_2
REMARK    2  A    between atoms: C_2  and  N_3
REMARK    3  A    between atoms: C_2  and  C_18
REMARK    4  A    between atoms: N_3  and  C_4
REMARK    5  A    between atoms: C_7  and  C_8
REMARK    6  A    between atoms: C_8  and  N_9
REMARK    7  A    between atoms: N_9  and  C_10
REMARK    8  A    between atoms: C_18  and  C_20
REMARK                            x       y       z     vdW  Elec       q    Type
REMARK                         _______ _______ _______ _____ _____    ______ ____
ROOT
ATOM      1  N   UNL     1      49.096   6.578  15.394  0.00  0.00    +0.000 N 
ATOM      2  H   UNL     1      50.056   6.500  15.059  0.00  0.00    +0.000 HD
ENDROOT
BRANCH   1   3
ATOM      3  C   UNL     1      48.173   6.579  14.351  0.00  0.00    +0.000 A 
ATOM      4  C   UNL     1      48.265   7.588  13.384  0.00  0.00    +0.000 A 
ATOM      5  C   UNL     1      47.402   7.631  12.285  0.00  0.00    +0.000 A 
ATOM      6  C   UNL     1      46.458   6.620  12.077  0.00  0.00    +0.000 A 
ATOM      7  C   UNL     1      46.382   5.588  13.021  0.00  0.00    +0.000 A 
ATOM      8  C   UNL     1      47.233   5.567  14.137  0.00  0.00    +0.000 A 
BRANCH   6   9
ATOM      9  C   UNL     1      45.524   6.641  10.885  0.00  0.00    +0.000 C 
BRANCH   9  10
ATOM     10  N   UNL     1      45.501   5.346  10.206  0.00  0.00    +0.000 NA
ATOM     11  H   UNL     1      45.912   4.654  10.832  0.00  0.00    +0.000 HD
BRANCH  10  12
ATOM     12  C   UNL     1      44.179   4.903   9.746  0.00  0.00    +0.000 C 
ATOM     13  C   UNL     1      43.231   4.453  10.868  0.00  0.00    +0.000 C 
ATOM     14  C   UNL     1      43.747   3.198  11.567  0.00  0.00    +0.000 C 
ATOM     15  N   UNL     1      43.910   2.089  10.624  0.00  0.00    +0.000 NA
ATOM     16  C   UNL     1      44.815   2.442   9.525  0.00  0.00    +0.000 C 
ATOM     17  C   UNL     1      44.378   3.712   8.789  0.00  0.00    +0.000 C 
ATOM     18  H   UNL     1      42.997   1.851  10.234  0.00  0.00    +0.000 HD
ENDBRANCH  10  12
ENDBRANCH   9  10
ENDBRANCH   6   9
ENDBRANCH   1   3
BRANCH   1  20
ATOM     19  C   UNL     1      50.161   8.465  16.577  0.00  0.00    +0.000 C 
ATOM     20  C   UNL     1      48.987   7.483  16.558  0.00  0.00    +0.000 C 
BRANCH  20  21
ATOM     21  C   UNL     1      48.976   6.626  17.860  0.00  0.00    +0.000 C 
ATOM     22  O   UNL     1      49.240   7.143  18.943  0.00  0.00    +0.000 OA
BRANCH  21  23
ATOM     23  C   UNL     1      48.723   5.173  17.750  0.00  0.00    +0.000 A 
ATOM     24  C   UNL     1      47.449   4.634  17.638  0.00  0.00    +0.000 A 
ATOM     25  S   UNL     1      47.437   2.951  17.367  0.00  0.00    +0.000 S 
ATOM     26  C   UNL     1      49.136   2.879  17.402  0.00  0.00    +0.000 A 
ATOM     27  N   UNL     1      49.785   1.706  17.173  0.00  0.00    +0.000 NA
ATOM     28  C   UNL     1      51.071   1.805  17.174  0.00  0.00    +0.000 A 
ATOM     29  N   UNL     1      51.765   2.960  17.416  0.00  0.00    +0.000 N 
ATOM     30  C   UNL     1      51.157   4.127  17.814  0.00  0.00    +0.000 A 
ATOM     31  O   UNL     1      51.817   5.032  18.311  0.00  0.00    +0.000 OA
ATOM     32  C   UNL     1      49.704   4.112  17.681  0.00  0.00    +0.000 A 
ATOM     33  H   UNL     1      52.771   2.948  17.495  0.00  0.00    +0.000 HD
ENDBRANCH  21  23
ENDBRANCH  20  21
ENDBRANCH   1  20
TORSDOF 7
ENDMDL
MODEL 6
REMARK VINA RESULT:    -6.334      2.815      4.091
REMARK INTER + INTRA:         -10.301
REMARK INTER:                  -9.449
REMARK INTRA:                  -0.852
REMARK UNBOUND:                -1.375
REMARK  Name = 
REMARK  8 active torsions:
REMARK  status: ('A' for Active; 'I' for Inactive)
REMARK    1  A    between atoms: C_1  and  C_2
REMARK    2  A    between atoms: C_2  and  N_3
REMARK    3  A    between atoms: C_2  and  C_18
REMARK    4  A    between atoms: N_3  and  C_4
REMARK    5  A    between atoms: C_7  and  C_8
REMARK    6  A    between atoms: C_8  and  N_9
REMARK    7  A    between atoms: N_9  and  C_10
REMARK    8  A    between atoms: C_18  and  C_20
REMARK                            x       y       z     vdW  Elec       q    Type
REMARK                         _______ _______ _______ _____ _____    ______ ____
ROOT
ATOM      1  N   UNL     1      46.967   6.058  12.322  0.00  0.00    +0.000 N 
ATOM      2  H   UNL     1      46.670   5.207  11.843  0.00  0.00    +0.000 HD
ENDROOT
BRANCH   1   3
ATOM      3  C   UNL     1      47.329   5.818  13.645  0.00  0.00    +0.000 A 
ATOM      4  C   UNL     1      46.805   4.685  14.282  0.00  0.00    +0.000 A 
ATOM      5  C   UNL     1      47.154   4.353  15.594  0.00  0.00    +0.000 A 
ATOM      6  C   UNL     1      48.099   5.110  16.294  0.00  0.00    +0.000 A 
ATOM      7  C   UNL     1      48.655   6.224  15.654  0.00  0.00    +0.000 A 
ATOM      8  C   UNL     1      48.278   6.567  14.346  0.00  0.00    +0.000 A 
BRANCH   6   9
ATOM      9  C   UNL     1      48.502   4.759  17.712  0.00  0.00    +0.000 C 
BRANCH   9  10
ATOM     10  N   UNL     1      47.791   5.586  18.686  0.00  0.00    +0.000 NA
ATOM     11  H   UNL     1      46.931   5.102  18.942  0.00  0.00    +0.000 HD
BRANCH  10  12
ATOM     12  C   UNL     1      48.558   5.941  19.886  0.00  0.00    +0.000 C 
ATOM     13  C   UNL     1      47.815   6.854  20.872  0.00  0.00    +0.000 C 
ATOM     14  C   UNL     1      47.547   8.230  20.266  0.00  0.00    +0.000 C 
ATOM     15  N   UNL     1      48.791   8.891  19.867  0.00  0.00    +0.000 NA
ATOM     16  C   UNL     1      49.553   8.079  18.913  0.00  0.00    +0.000 C 
ATOM     17  C   UNL     1      49.840   6.669  19.439  0.00  0.00    +0.000 C 
ATOM     18  H   UNL     1      49.363   9.045  20.698  0.00  0.00    +0.000 HD
ENDBRANCH  10  12
ENDBRANCH   9  10
ENDBRANCH   6   9
ENDBRANCH   1   3
BRANCH   1  20
ATOM     19  C   UNL     1      46.061   8.229  13.069  0.00  0.00    +0.000 C 
ATOM     20  C   UNL     1      46.170   7.233  11.912  0.00  0.00    +0.000 C 
BRANCH  20  21
ATOM     21  C   UNL     1      44.753   6.751  11.476  0.00  0.00    +0.000 C 
ATOM     22  O   UNL     1      43.854   7.566  11.285  0.00  0.00    +0.000 OA
BRANCH  21  23
ATOM     23  C   UNL     1      44.497   5.297  11.380  0.00  0.00    +0.000 A 
ATOM     24  C   UNL     1      43.831   4.580  12.364  0.00  0.00    +0.000 A 
ATOM     25  S   UNL     1      43.527   2.957  11.943  0.00  0.00    +0.000 S 
ATOM     26  C   UNL     1      44.287   3.150  10.433  0.00  0.00    +0.000 A 
ATOM     27  N   UNL     1      44.321   2.126   9.539  0.00  0.00    +0.000 NA
ATOM     28  C   UNL     1      44.877   2.426   8.414  0.00  0.00    +0.000 A 
ATOM     29  N   UNL     1      45.431   3.642   8.117  0.00  0.00    +0.000 N 
ATOM     30  C   UNL     1      45.567   4.647   9.044  0.00  0.00    +0.000 A 
ATOM     31  O   UNL     1      46.328   5.584   8.836  0.00  0.00    +0.000 OA
ATOM     32  C   UNL     1      44.822   4.418  10.277  0.00  0.00    +0.000 A 
ATOM     33  H   UNL     1      45.934   3.780   7.252  0.00  0.00    +0.000 HD
ENDBRANCH  21  23
ENDBRANCH  20  21
ENDBRANCH   1  20
TORSDOF 7
ENDMDL
MODEL 7
REMARK VINA RESULT:    -6.330      3.259      8.051
REMARK INTER + INTRA:         -10.295
REMARK INTER:                  -8.826
REMARK INTRA:                  -1.469
REMARK UNBOUND:                -1.375
REMARK  Name = 
REMARK  8 active torsions:
REMARK  status: ('A' for Active; 'I' for Inactive)
REMARK    1  A    between atoms: C_1  and  C_2
REMARK    2  A    between atoms: C_2  and  N_3
REMARK    3  A    between atoms: C_2  and  C_18
REMARK    4  A    between atoms: N_3  and  C_4
REMARK    5  A    between atoms: C_7  and  C_8
REMARK    6  A    between atoms: C_8  and  N_9
REMARK    7  A    between atoms: N_9  and  C_10
REMARK    8  A    between atoms: C_18  and  C_20
REMARK                            x       y       z     vdW  Elec       q    Type
REMARK                         _______ _______ _______ _____ _____    ______ ____
ROOT
ATOM      1  N   UNL     1      49.261   7.617  15.003  0.00  0.00    +0.000 N 
ATOM      2  H   UNL     1      50.131   7.680  14.475  0.00  0.00    +0.000 HD
ENDROOT
BRANCH   1   3
ATOM      3  C   UNL     1      48.156   7.427  14.177  0.00  0.00    +0.000 A 
ATOM      4  C   UNL     1      47.312   8.519  13.936  0.00  0.00    +0.000 A 
ATOM      5  C   UNL     1      46.207   8.418  13.084  0.00  0.00    +0.000 A 
ATOM      6  C   UNL     1      45.950   7.234  12.385  0.00  0.00    +0.000 A 
ATOM      7  C   UNL     1      46.809   6.148  12.592  0.00  0.00    +0.000 A 
ATOM      8  C   UNL     1      47.900   6.248  13.471  0.00  0.00    +0.000 A 
BRANCH   6   9
ATOM      9  C   UNL     1      44.767   7.110  11.447  0.00  0.00    +0.000 C 
BRANCH   9  10
ATOM     10  N   UNL     1      44.836   5.874  10.667  0.00  0.00    +0.000 NA
ATOM     11  H   UNL     1      45.599   5.309  11.039  0.00  0.00    +0.000 HD
BRANCH  10  12
ATOM     12  C   UNL     1      43.594   5.094  10.620  0.00  0.00    +0.000 C 
ATOM     13  C   UNL     1      42.864   4.973  11.966  0.00  0.00    +0.000 C 
ATOM     14  C   UNL     1      43.685   4.176  12.977  0.00  0.00    +0.000 C 
ATOM     15  N   UNL     1      43.979   2.829  12.485  0.00  0.00    +0.000 NA
ATOM     16  C   UNL     1      44.689   2.864  11.202  0.00  0.00    +0.000 C 
ATOM     17  C   UNL     1      43.939   3.671  10.138  0.00  0.00    +0.000 C 
ATOM     18  H   UNL     1      43.101   2.324  12.361  0.00  0.00    +0.000 HD
ENDBRANCH  10  12
ENDBRANCH   9  10
ENDBRANCH   6   9
ENDBRANCH   1   3
BRANCH   1  20
ATOM     19  C   UNL     1      50.326   9.610  15.996  0.00  0.00    +0.000 C 
ATOM     20  C   UNL     1      49.245   8.538  16.159  0.00  0.00    +0.000 C 
BRANCH  20  21
ATOM     21  C   UNL     1      49.490   7.715  17.460  0.00  0.00    +0.000 C 
ATOM     22  O   UNL     1      48.974   8.065  18.519  0.00  0.00    +0.000 OA
BRANCH  21  23
ATOM     23  C   UNL     1      50.414   6.561  17.406  0.00  0.00    +0.000 A 
ATOM     24  C   UNL     1      51.791   6.690  17.526  0.00  0.00    +0.000 A 
ATOM     25  S   UNL     1      52.616   5.200  17.588  0.00  0.00    +0.000 S 
ATOM     26  C   UNL     1      51.163   4.328  17.444  0.00  0.00    +0.000 A 
ATOM     27  N   UNL     1      51.163   2.968  17.488  0.00  0.00    +0.000 NA
ATOM     28  C   UNL     1      49.989   2.438  17.424  0.00  0.00    +0.000 A 
ATOM     29  N   UNL     1      48.822   3.139  17.285  0.00  0.00    +0.000 N 
ATOM     30  C   UNL     1      48.788   4.496  17.070  0.00  0.00    +0.000 A 
ATOM     31  O   UNL     1      47.769   5.032  16.651  0.00  0.00    +0.000 OA
ATOM     32  C   UNL     1      50.067   5.161  17.286  0.00  0.00    +0.000 A 
ATOM     33  H   UNL     1      47.946   2.657  17.147  0.00  0.00    +0.000 HD
ENDBRANCH  21  23
ENDBRANCH  20  21
ENDBRANCH   1  20
TORSDOF 7
ENDMDL
MODEL 8
REMARK VINA RESULT:    -6.264      4.121      8.136
REMARK INTER + INTRA:         -10.202
REMARK INTER:                  -8.508
REMARK INTRA:                  -1.695
REMARK UNBOUND:                -1.375
REMARK  Name = 
REMARK  8 active torsions:
REMARK  status: ('A' for Active; 'I' for Inactive)
REMARK    1  A    between atoms: C_1  and  C_2
REMARK    2  A    between atoms: C_2  and  N_3
REMARK    3  A    between atoms: C_2  and  C_18
REMARK    4  A    between atoms: N_3  and  C_4
REMARK    5  A    between atoms: C_7  and  C_8
REMARK    6  A    between atoms: C_8  and  N_9
REMARK    7  A    between atoms: N_9  and  C_10
REMARK    8  A    between atoms: C_18  and  C_20
REMARK                            x       y       z     vdW  Elec       q    Type
REMARK                         _______ _______ _______ _____ _____    ______ ____
ROOT
ATOM      1  N   UNL     1      50.275   7.336  14.302  0.00  0.00    +0.000 N 
ATOM      2  H   UNL     1      51.002   7.012  13.664  0.00  0.00    +0.000 HD
ENDROOT
BRANCH   1   3
ATOM      3  C   UNL     1      49.047   7.491  13.665  0.00  0.00    +0.000 A 
ATOM      4  C   UNL     1      48.816   6.772  12.484  0.00  0.00    +0.000 A 
ATOM      5  C   UNL     1      47.593   6.842  11.810  0.00  0.00    +0.000 A 
ATOM      6  C   UNL     1      46.529   7.582  12.336  0.00  0.00    +0.000 A 
ATOM      7  C   UNL     1      46.739   8.276  13.533  0.00  0.00    +0.000 A 
ATOM      8  C   UNL     1      47.979   8.224  14.190  0.00  0.00    +0.000 A 
BRANCH   6   9
ATOM      9  C   UNL     1      45.192   7.659  11.628  0.00  0.00    +0.000 C 
BRANCH   9  10
ATOM     10  N   UNL     1      44.595   6.333  11.475  0.00  0.00    +0.000 NA
ATOM     11  H   UNL     1      45.284   5.726  11.032  0.00  0.00    +0.000 HD
BRANCH  10  12
ATOM     12  C   UNL     1      44.094   5.724  12.713  0.00  0.00    +0.000 C 
ATOM     13  C   UNL     1      45.088   4.782  13.408  0.00  0.00    +0.000 C 
ATOM     14  C   UNL     1      45.377   3.547  12.558  0.00  0.00    +0.000 C 
ATOM     15  N   UNL     1      44.152   2.799  12.268  0.00  0.00    +0.000 NA
ATOM     16  C   UNL     1      43.155   3.634  11.590  0.00  0.00    +0.000 C 
ATOM     17  C   UNL     1      42.830   4.911  12.371  0.00  0.00    +0.000 C 
ATOM     18  H   UNL     1      43.756   2.461  13.146  0.00  0.00    +0.000 HD
ENDBRANCH  10  12
ENDBRANCH   9  10
ENDBRANCH   6   9
ENDBRANCH   1   3
BRANCH   1  20
ATOM     19  C   UNL     1      51.869   9.189  14.643  0.00  0.00    +0.000 C 
ATOM     20  C   UNL     1      50.793   8.309  15.286  0.00  0.00    +0.000 C 
BRANCH  20  21
ATOM     21  C   UNL     1      51.384   7.530  16.500  0.00  0.00    +0.000 C 
ATOM     22  O   UNL     1      52.446   6.923  16.387  0.00  0.00    +0.000 OA
BRANCH  21  23
ATOM     23  C   UNL     1      50.601   7.472  17.753  0.00  0.00    +0.000 A 
ATOM     24  C   UNL     1      50.917   8.222  18.877  0.00  0.00    +0.000 A 
ATOM     25  S   UNL     1      49.771   8.093  20.132  0.00  0.00    +0.000 S 
ATOM     26  C   UNL     1      48.816   7.019  19.223  0.00  0.00    +0.000 A 
ATOM     27  N   UNL     1      47.632   6.561  19.711  0.00  0.00    +0.000 NA
ATOM     28  C   UNL     1      46.984   5.799  18.896  0.00  0.00    +0.000 A 
ATOM     29  N   UNL     1      47.427   5.427  17.655  0.00  0.00    +0.000 N 
ATOM     30  C   UNL     1      48.685   5.730  17.191  0.00  0.00    +0.000 A 
ATOM     31  O   UNL     1      49.150   5.133  16.227  0.00  0.00    +0.000 OA
ATOM     32  C   UNL     1      49.395   6.712  18.002  0.00  0.00    +0.000 A 
ATOM     33  H   UNL     1      46.913   4.753  17.107  0.00  0.00    +0.000 HD
ENDBRANCH  21  23
ENDBRANCH  20  21
ENDBRANCH   1  20
TORSDOF 7
ENDMDL
MODEL 9
REMARK VINA RESULT:    -6.137      3.956      7.993
REMARK INTER + INTRA:         -10.024
REMARK INTER:                  -8.497
REMARK INTRA:                  -1.527
REMARK UNBOUND:                -1.375
REMARK  Name = 
REMARK  8 active torsions:
REMARK  status: ('A' for Active; 'I' for Inactive)
REMARK    1  A    between atoms: C_1  and  C_2
REMARK    2  A    between atoms: C_2  and  N_3
REMARK    3  A    between atoms: C_2  and  C_18
REMARK    4  A    between atoms: N_3  and  C_4
REMARK    5  A    between atoms: C_7  and  C_8
REMARK    6  A    between atoms: C_8  and  N_9
REMARK    7  A    between atoms: N_9  and  C_10
REMARK    8  A    between atoms: C_18  and  C_20
REMARK                            x       y       z     vdW  Elec       q    Type
REMARK                         _______ _______ _______ _____ _____    ______ ____
ROOT
ATOM      1  N   UNL     1      50.475   7.455  14.204  0.00  0.00    +0.000 N 
ATOM      2  H   UNL     1      51.182   7.861  13.591  0.00  0.00    +0.000 HD
ENDROOT
BRANCH   1   3
ATOM      3  C   UNL     1      49.215   7.432  13.612  0.00  0.00    +0.000 A 
ATOM      4  C   UNL     1      48.181   8.152  14.224  0.00  0.00    +0.000 A 
ATOM      5  C   UNL     1      46.900   8.211  13.667  0.00  0.00    +0.000 A 
ATOM      6  C   UNL     1      46.628   7.608  12.435  0.00  0.00    +0.000 A 
ATOM      7  C   UNL     1      47.665   6.915  11.798  0.00  0.00    +0.000 A 
ATOM      8  C   UNL     1      48.942   6.836  12.378  0.00  0.00    +0.000 A 
BRANCH   6   9
ATOM      9  C   UNL     1      45.250   7.674  11.807  0.00  0.00    +0.000 C 
BRANCH   9  10
ATOM     10  N   UNL     1      44.667   6.340  11.666  0.00  0.00    +0.000 NA
ATOM     11  H   UNL     1      45.328   5.760  11.152  0.00  0.00    +0.000 HD
BRANCH  10  12
ATOM     12  C   UNL     1      44.281   5.689  12.924  0.00  0.00    +0.000 C 
ATOM     13  C   UNL     1      45.326   4.713  13.484  0.00  0.00    +0.000 C 
ATOM     14  C   UNL     1      45.516   3.509  12.564  0.00  0.00    +0.000 C 
ATOM     15  N   UNL     1      44.260   2.783  12.367  0.00  0.00    +0.000 NA
ATOM     16  C   UNL     1      43.213   3.652  11.821  0.00  0.00    +0.000 C 
ATOM     17  C   UNL     1      42.980   4.901  12.676  0.00  0.00    +0.000 C 
ATOM     18  H   UNL     1      43.947   2.415  13.266  0.00  0.00    +0.000 HD
ENDBRANCH  10  12
ENDBRANCH   9  10
ENDBRANCH   6   9
ENDBRANCH   1   3
BRANCH   1  20
ATOM     19  C   UNL     1      52.001   8.599  15.771  0.00  0.00    +0.000 C 
ATOM     20  C   UNL     1      50.687   7.829  15.619  0.00  0.00    +0.000 C 
BRANCH  20  21
ATOM     21  C   UNL     1      50.715   6.533  16.483  0.00  0.00    +0.000 C 
ATOM     22  O   UNL     1      51.750   5.878  16.582  0.00  0.00    +0.000 OA
BRANCH  21  23
ATOM     23  C   UNL     1      49.456   6.070  17.107  0.00  0.00    +0.000 A 
ATOM     24  C   UNL     1      48.676   5.055  16.571  0.00  0.00    +0.000 A 
ATOM     25  S   UNL     1      47.364   4.604  17.561  0.00  0.00    +0.000 S 
ATOM     26  C   UNL     1      47.785   5.757  18.738  0.00  0.00    +0.000 A 
ATOM     27  N   UNL     1      47.080   5.854  19.897  0.00  0.00    +0.000 NA
ATOM     28  C   UNL     1      47.541   6.730  20.724  0.00  0.00    +0.000 A 
ATOM     29  N   UNL     1      48.617   7.541  20.483  0.00  0.00    +0.000 N 
ATOM     30  C   UNL     1      49.253   7.594  19.265  0.00  0.00    +0.000 A 
ATOM     31  O   UNL     1      49.996   8.530  18.994  0.00  0.00    +0.000 OA
ATOM     32  C   UNL     1      48.874   6.522  18.352  0.00  0.00    +0.000 A 
ATOM     33  H   UNL     1      48.867   8.270  21.134  0.00  0.00    +0.000 HD
ENDBRANCH  21  23
ENDBRANCH  20  21
ENDBRANCH   1  20
TORSDOF 7
ENDMDL
