MODEL 1
REMARK VINA RESULT:    -7.070      0.000      0.000
REMARK INTER + INTRA:          -9.692
REMARK INTER:                  -9.550
REMARK INTRA:                  -0.142
REMARK UNBOUND:                -0.142
REMARK  Name = 
REMARK  7 active torsions:
REMARK  status: ('A' for Active; 'I' for Inactive)
REMARK    1  A    between atoms: C_1  and  C_2
REMARK    2  A    between atoms: C_2  and  O_3
REMARK    3  A    between atoms: O_3  and  C_4
REMARK    4  A    between atoms: C_8  and  N_9
REMARK    5  A    between atoms: N_9  and  C_10
REMARK    6  A    between atoms: C_10  and  C_11
REMARK    7  A    between atoms: C_15  and  C_16
REMARK                            x       y       z     vdW  Elec       q    Type
REMARK                         _______ _______ _______ _____ _____    ______ ____
ROOT
ATOM      1  C   UNL     1      43.890   5.497  11.644  0.00  0.00    +0.000 C 
ATOM      2  C   UNL     1      43.921   4.389  12.688  0.00  0.00    +0.000 C 
ATOM      3  C   UNL     1      42.840   5.417  12.734  0.00  0.00    +0.000 C 
ENDROOT
BRANCH   1   4
ATOM      4  C   UNL     1      44.923   6.617  11.714  0.00  0.00    +0.000 A 
ATOM      5  C   UNL     1      44.552   7.968  11.682  0.00  0.00    +0.000 A 
ATOM      6  C   UNL     1      45.496   8.979  11.866  0.00  0.00    +0.000 A 
ATOM      7  C   UNL     1      46.827   8.659  12.133  0.00  0.00    +0.000 A 
ATOM      8  C   UNL     1      47.241   7.327  12.218  0.00  0.00    +0.000 A 
ATOM      9  C   UNL     1      46.283   6.332  11.931  0.00  0.00    +0.000 A 
BRANCH   8  10
ATOM     10  C   UNL     1      48.650   6.898  12.630  0.00  0.00    +0.000 C 
ATOM     11  C   UNL     1      48.750   6.593  14.145  0.00  0.00    +0.000 C 
ATOM     12  C   UNL     1      48.772   7.867  14.986  0.00  0.00    +0.000 C 
ATOM     13  N   UNL     1      49.891   8.735  14.617  0.00  0.00    +0.000 NA
ATOM     14  C   UNL     1      49.834   9.094  13.201  0.00  0.00    +0.000 C 
ATOM     15  C   UNL     1      49.799   7.867  12.283  0.00  0.00    +0.000 C 
ATOM     16  H   UNL     1      50.767   8.249  14.807  0.00  0.00    +0.000 HD
ENDBRANCH   8  10
ENDBRANCH   1   4
BRANCH   1  17
ATOM     17  N   UNL     1      43.652   5.017  10.262  0.00  0.00    +0.000 N 
ATOM     18  H   UNL     1      42.667   4.839  10.072  0.00  0.00    +0.000 HD
BRANCH  17  23
ATOM     19  C   UNL     1      46.181   3.390   8.035  0.00  0.00    +0.000 A 
ATOM     20  C   UNL     1      45.810   2.070   8.257  0.00  0.00    +0.000 A 
ATOM     21  N   UNL     1      44.828   1.694   9.107  0.00  0.00    +0.000 NA
ATOM     22  C   UNL     1      44.181   2.696   9.749  0.00  0.00    +0.000 A 
ATOM     23  C   UNL     1      44.461   4.060   9.609  0.00  0.00    +0.000 A 
ATOM     24  C   UNL     1      45.463   4.387   8.694  0.00  0.00    +0.000 A 
BRANCH  19  25
ATOM     25  O   UNL     1      47.185   3.619   7.135  0.00  0.00    +0.000 OA
BRANCH  25  27
ATOM     26  C   UNL     1      47.807   2.422   5.154  0.00  0.00    +0.000 C 
ATOM     27  C   UNL     1      47.844   2.439   6.669  0.00  0.00    +0.000 C 
ENDBRANCH  25  27
ENDBRANCH  19  25
ENDBRANCH  17  23
ENDBRANCH   1  17
TORSDOF 6
ENDMDL
MODEL 2
REMARK VINA RESULT:    -7.034      3.021      5.051
REMARK INTER + INTRA:          -9.644
REMARK INTER:                  -8.854
REMARK INTRA:                  -0.790
REMARK UNBOUND:                -0.142
REMARK  Name = 
REMARK  7 active torsions:
REMARK  status: ('A' for Active; 'I' for Inactive)
REMARK    1  A    between atoms: C_1  and  C_2
REMARK    2  A    between atoms: C_2  and  O_3
REMARK    3  A    between atoms: O_3  and  C_4
REMARK    4  A    between atoms: C_8  and  N_9
REMARK    5  A    between atoms: N_9  and  C_10
REMARK    6  A    between atoms: C_10  and  C_11
REMARK    7  A    between atoms: C_15  and  C_16
REMARK                            x       y       z     vdW  Elec       q    Type
REMARK                         _______ _______ _______ _____ _____    ______ ____
ROOT
ATOM      1  C   UNL     1      47.773   7.395  13.026  0.00  0.00    +0.000 C 
ATOM      2  C   UNL     1      47.730   8.785  12.406  0.00  0.00    +0.000 C 
ATOM      3  C   UNL     1      48.297   7.646  11.627  0.00  0.00    +0.000 C 
ENDROOT
BRANCH   1   4
ATOM      4  C   UNL     1      48.778   7.104  14.136  0.00  0.00    +0.000 A 
ATOM      5  C   UNL     1      50.039   7.714  14.170  0.00  0.00    +0.000 A 
ATOM      6  C   UNL     1      50.900   7.530  15.252  0.00  0.00    +0.000 A 
ATOM      7  C   UNL     1      50.498   6.767  16.349  0.00  0.00    +0.000 A 
ATOM      8  C   UNL     1      49.235   6.172  16.384  0.00  0.00    +0.000 A 
ATOM      9  C   UNL     1      48.429   6.297  15.234  0.00  0.00    +0.000 A 
BRANCH   8  10
ATOM     10  C   UNL     1      48.677   5.428  17.599  0.00  0.00    +0.000 C 
ATOM     11  C   UNL     1      49.770   4.625  18.347  0.00  0.00    +0.000 C 
ATOM     12  C   UNL     1      50.154   3.348  17.602  0.00  0.00    +0.000 C 
ATOM     13  N   UNL     1      48.996   2.475  17.403  0.00  0.00    +0.000 NA
ATOM     14  C   UNL     1      47.938   3.163  16.664  0.00  0.00    +0.000 C 
ATOM     15  C   UNL     1      47.499   4.466  17.342  0.00  0.00    +0.000 C 
ATOM     16  H   UNL     1      48.638   2.182  18.312  0.00  0.00    +0.000 HD
ENDBRANCH   8  10
ENDBRANCH   1   4
BRANCH   1  17
ATOM     17  N   UNL     1      46.436   6.811  13.291  0.00  0.00    +0.000 N 
ATOM     18  H   UNL     1      46.192   6.822  14.280  0.00  0.00    +0.000 HD
BRANCH  17  23
ATOM     19  C   UNL     1      44.748   4.428  10.951  0.00  0.00    +0.000 A 
ATOM     20  C   UNL     1      44.892   3.277  11.714  0.00  0.00    +0.000 A 
ATOM     21  N   UNL     1      45.532   3.234  12.904  0.00  0.00    +0.000 NA
ATOM     22  C   UNL     1      46.036   4.410  13.350  0.00  0.00    +0.000 A 
ATOM     23  C   UNL     1      45.954   5.633  12.676  0.00  0.00    +0.000 A 
ATOM     24  C   UNL     1      45.254   5.620  11.469  0.00  0.00    +0.000 A 
BRANCH  19  25
ATOM     25  O   UNL     1      44.062   4.321   9.772  0.00  0.00    +0.000 OA
BRANCH  25  27
ATOM     26  C   UNL     1      45.676   3.962   8.037  0.00  0.00    +0.000 C 
ATOM     27  C   UNL     1      44.579   3.336   8.874  0.00  0.00    +0.000 C 
ENDBRANCH  25  27
ENDBRANCH  19  25
ENDBRANCH  17  23
ENDBRANCH   1  17
TORSDOF 6
ENDMDL
MODEL 3
REMARK VINA RESULT:    -7.017      2.847      4.991
REMARK INTER + INTRA:          -9.620
REMARK INTER:                  -8.634
REMARK INTRA:                  -0.986
REMARK UNBOUND:                -0.142
REMARK  Name = 
REMARK  7 active torsions:
REMARK  status: ('A' for Active; 'I' for Inactive)
REMARK    1  A    between atoms: C_1  and  C_2
REMARK    2  A    between atoms: C_2  and  O_3
REMARK    3  A    between atoms: O_3  and  C_4
REMARK    4  A    between atoms: C_8  and  N_9
REMARK    5  A    between atoms: N_9  and  C_10
REMARK    6  A    between atoms: C_10  and  C_11
REMARK    7  A    between atoms: C_15  and  C_16
REMARK                            x       y       z     vdW  Elec       q    Type
REMARK                         _______ _______ _______ _____ _____    ______ ____
ROOT
ATOM      1  C   UNL     1      48.002   7.706  12.918  0.00  0.00    +0.000 C 
ATOM      2  C   UNL     1      48.601   8.587  11.829  0.00  0.00    +0.000 C 
ATOM      3  C   UNL     1      49.086   7.185  11.996  0.00  0.00    +0.000 C 
ENDROOT
BRANCH   1   4
ATOM      4  C   UNL     1      48.360   7.977  14.376  0.00  0.00    +0.000 A 
ATOM      5  C   UNL     1      48.140   9.227  14.971  0.00  0.00    +0.000 A 
ATOM      6  C   UNL     1      48.360   9.425  16.334  0.00  0.00    +0.000 A 
ATOM      7  C   UNL     1      48.761   8.363  17.143  0.00  0.00    +0.000 A 
ATOM      8  C   UNL     1      48.954   7.087  16.608  0.00  0.00    +0.000 A 
ATOM      9  C   UNL     1      48.817   6.943  15.212  0.00  0.00    +0.000 A 
BRANCH   8  10
ATOM     10  C   UNL     1      49.270   5.849  17.450  0.00  0.00    +0.000 C 
ATOM     11  C   UNL     1      48.745   4.547  16.797  0.00  0.00    +0.000 C 
ATOM     12  C   UNL     1      47.232   4.400  16.946  0.00  0.00    +0.000 C 
ATOM     13  N   UNL     1      46.829   4.403  18.354  0.00  0.00    +0.000 NA
ATOM     14  C   UNL     1      47.262   5.630  19.022  0.00  0.00    +0.000 C 
ATOM     15  C   UNL     1      48.773   5.859  18.910  0.00  0.00    +0.000 C 
ATOM     16  H   UNL     1      47.245   3.598  18.822  0.00  0.00    +0.000 HD
ENDBRANCH   8  10
ENDBRANCH   1   4
BRANCH   1  17
ATOM     17  N   UNL     1      46.565   7.399  12.723  0.00  0.00    +0.000 N 
ATOM     18  H   UNL     1      45.967   7.884  13.391  0.00  0.00    +0.000 HD
BRANCH  17  23
ATOM     19  C   UNL     1      44.783   4.499  11.168  0.00  0.00    +0.000 A 
ATOM     20  C   UNL     1      44.976   3.585  12.195  0.00  0.00    +0.000 A 
ATOM     21  N   UNL     1      45.675   3.848  13.321  0.00  0.00    +0.000 NA
ATOM     22  C   UNL     1      46.190   5.097  13.422  0.00  0.00    +0.000 A 
ATOM     23  C   UNL     1      46.064   6.104  12.460  0.00  0.00    +0.000 A 
ATOM     24  C   UNL     1      45.304   5.782  11.334  0.00  0.00    +0.000 A 
BRANCH  19  25
ATOM     25  O   UNL     1      44.040   4.094  10.094  0.00  0.00    +0.000 OA
BRANCH  25  27
ATOM     26  C   UNL     1      45.189   3.489   8.080  0.00  0.00    +0.000 C 
ATOM     27  C   UNL     1      44.590   2.986   9.377  0.00  0.00    +0.000 C 
ENDBRANCH  25  27
ENDBRANCH  19  25
ENDBRANCH  17  23
ENDBRANCH   1  17
TORSDOF 6
ENDMDL
MODEL 4
REMARK VINA RESULT:    -6.957      2.026      3.364
REMARK INTER + INTRA:          -9.540
REMARK INTER:                  -9.228
REMARK INTRA:                  -0.312
REMARK UNBOUND:                -0.142
REMARK  Name = 
REMARK  7 active torsions:
REMARK  status: ('A' for Active; 'I' for Inactive)
REMARK    1  A    between atoms: C_1  and  C_2
REMARK    2  A    between atoms: C_2  and  O_3
REMARK    3  A    between atoms: O_3  and  C_4
REMARK    4  A    between atoms: C_8  and  N_9
REMARK    5  A    between atoms: N_9  and  C_10
REMARK    6  A    between atoms: C_10  and  C_11
REMARK    7  A    between atoms: C_15  and  C_16
REMARK                            x       y       z     vdW  Elec       q    Type
REMARK                         _______ _______ _______ _____ _____    ______ ____
ROOT
ATOM      1  C   UNL     1      44.139   5.514  11.868  0.00  0.00    +0.000 C 
ATOM      2  C   UNL     1      44.262   4.316  12.800  0.00  0.00    +0.000 C 
ATOM      3  C   UNL     1      43.151   5.295  12.996  0.00  0.00    +0.000 C 
ENDROOT
BRANCH   1   4
ATOM      4  C   UNL     1      45.138   6.661  11.992  0.00  0.00    +0.000 A 
ATOM      5  C   UNL     1      46.516   6.461  11.832  0.00  0.00    +0.000 A 
ATOM      6  C   UNL     1      47.404   7.536  11.830  0.00  0.00    +0.000 A 
ATOM      7  C   UNL     1      46.928   8.843  11.941  0.00  0.00    +0.000 A 
ATOM      8  C   UNL     1      45.560   9.099  12.060  0.00  0.00    +0.000 A 
ATOM      9  C   UNL     1      44.699   7.987  12.156  0.00  0.00    +0.000 A 
BRANCH   8  10
ATOM     10  C   UNL     1      44.954  10.504  12.060  0.00  0.00    +0.000 C 
ATOM     11  C   UNL     1      43.662  10.584  11.210  0.00  0.00    +0.000 C 
ATOM     12  C   UNL     1      43.961  10.592   9.712  0.00  0.00    +0.000 C 
ATOM     13  N   UNL     1      44.824  11.715   9.343  0.00  0.00    +0.000 NA
ATOM     14  C   UNL     1      46.084  11.676  10.085  0.00  0.00    +0.000 C 
ATOM     15  C   UNL     1      45.873  11.655  11.603  0.00  0.00    +0.000 C 
ATOM     16  H   UNL     1      44.341  12.589   9.545  0.00  0.00    +0.000 HD
ENDBRANCH   8  10
ENDBRANCH   1   4
BRANCH   1  17
ATOM     17  N   UNL     1      43.845   5.155  10.460  0.00  0.00    +0.000 N 
ATOM     18  H   UNL     1      42.846   5.062  10.280  0.00  0.00    +0.000 HD
BRANCH  17  23
ATOM     19  C   UNL     1      46.167   3.516   8.027  0.00  0.00    +0.000 A 
ATOM     20  C   UNL     1      45.749   2.206   8.216  0.00  0.00    +0.000 A 
ATOM     21  N   UNL     1      44.799   1.837   9.105  0.00  0.00    +0.000 NA
ATOM     22  C   UNL     1      44.237   2.838   9.824  0.00  0.00    +0.000 A 
ATOM     23  C   UNL     1      44.571   4.192   9.723  0.00  0.00    +0.000 A 
ATOM     24  C   UNL     1      45.535   4.515   8.766  0.00  0.00    +0.000 A 
BRANCH  19  25
ATOM     25  O   UNL     1      47.129   3.740   7.080  0.00  0.00    +0.000 OA
BRANCH  25  27
ATOM     26  C   UNL     1      47.744   2.401   5.191  0.00  0.00    +0.000 C 
ATOM     27  C   UNL     1      47.860   2.574   6.691  0.00  0.00    +0.000 C 
ENDBRANCH  25  27
ENDBRANCH  19  25
ENDBRANCH  17  23
ENDBRANCH   1  17
TORSDOF 6
ENDMDL
MODEL 5
REMARK VINA RESULT:    -6.442      2.551      5.014
REMARK INTER + INTRA:          -8.844
REMARK INTER:                  -8.660
REMARK INTRA:                  -0.184
REMARK UNBOUND:                -0.142
REMARK  Name = 
REMARK  7 active torsions:
REMARK  status: ('A' for Active; 'I' for Inactive)
REMARK    1  A    between atoms: C_1  and  C_2
REMARK    2  A    between atoms: C_2  and  O_3
REMARK    3  A    between atoms: O_3  and  C_4
REMARK    4  A    between atoms: C_8  and  N_9
REMARK    5  A    between atoms: N_9  and  C_10
REMARK    6  A    between atoms: C_10  and  C_11
REMARK    7  A    between atoms: C_15  and  C_16
REMARK                            x       y       z     vdW  Elec       q    Type
REMARK                         _______ _______ _______ _____ _____    ______ ____
ROOT
ATOM      1  C   UNL     1      47.462   7.624  13.164  0.00  0.00    +0.000 C 
ATOM      2  C   UNL     1      48.530   6.594  12.820  0.00  0.00    +0.000 C 
ATOM      3  C   UNL     1      48.573   7.292  14.140  0.00  0.00    +0.000 C 
ENDROOT
BRANCH   1   4
ATOM      4  C   UNL     1      47.487   8.984  12.473  0.00  0.00    +0.000 A 
ATOM      5  C   UNL     1      48.629   9.456  11.812  0.00  0.00    +0.000 A 
ATOM      6  C   UNL     1      48.600  10.646  11.084  0.00  0.00    +0.000 A 
ATOM      7  C   UNL     1      47.413  11.367  10.962  0.00  0.00    +0.000 A 
ATOM      8  C   UNL     1      46.236  10.918  11.565  0.00  0.00    +0.000 A 
ATOM      9  C   UNL     1      46.322   9.765  12.373  0.00  0.00    +0.000 A 
BRANCH   8  10
ATOM     10  C   UNL     1      44.872  11.584  11.373  0.00  0.00    +0.000 C 
ATOM     11  C   UNL     1      43.700  10.613  11.658  0.00  0.00    +0.000 C 
ATOM     12  C   UNL     1      43.496   9.611  10.523  0.00  0.00    +0.000 C 
ATOM     13  N   UNL     1      43.233  10.288   9.252  0.00  0.00    +0.000 NA
ATOM     14  C   UNL     1      44.326  11.194   8.903  0.00  0.00    +0.000 C 
ATOM     15  C   UNL     1      44.604  12.230   9.998  0.00  0.00    +0.000 C 
ATOM     16  H   UNL     1      42.365  10.818   9.328  0.00  0.00    +0.000 HD
ENDBRANCH   8  10
ENDBRANCH   1   4
BRANCH   1  17
ATOM     17  N   UNL     1      46.096   7.061  13.280  0.00  0.00    +0.000 N 
ATOM     18  H   UNL     1      45.734   7.101  14.231  0.00  0.00    +0.000 HD
BRANCH  17  23
ATOM     19  C   UNL     1      44.748   4.621  10.783  0.00  0.00    +0.000 A 
ATOM     20  C   UNL     1      44.695   3.509  11.612  0.00  0.00    +0.000 A 
ATOM     21  N   UNL     1      45.105   3.506  12.900  0.00  0.00    +0.000 NA
ATOM     22  C   UNL     1      45.575   4.684  13.377  0.00  0.00    +0.000 A 
ATOM     23  C   UNL     1      45.677   5.870  12.643  0.00  0.00    +0.000 A 
ATOM     24  C   UNL     1      45.208   5.819  11.329  0.00  0.00    +0.000 A 
BRANCH  19  25
ATOM     25  O   UNL     1      44.284   4.477   9.504  0.00  0.00    +0.000 OA
BRANCH  25  27
ATOM     26  C   UNL     1      45.638   3.561   7.752  0.00  0.00    +0.000 C 
ATOM     27  C   UNL     1      44.664   3.252   8.870  0.00  0.00    +0.000 C 
ENDBRANCH  25  27
ENDBRANCH  19  25
ENDBRANCH  17  23
ENDBRANCH   1  17
TORSDOF 6
ENDMDL
MODEL 6
REMARK VINA RESULT:    -6.362      3.333      7.768
REMARK INTER + INTRA:          -8.735
REMARK INTER:                  -7.948
REMARK INTRA:                  -0.788
REMARK UNBOUND:                -0.142
REMARK  Name = 
REMARK  7 active torsions:
REMARK  status: ('A' for Active; 'I' for Inactive)
REMARK    1  A    between atoms: C_1  and  C_2
REMARK    2  A    between atoms: C_2  and  O_3
REMARK    3  A    between atoms: O_3  and  C_4
REMARK    4  A    between atoms: C_8  and  N_9
REMARK    5  A    between atoms: N_9  and  C_10
REMARK    6  A    between atoms: C_10  and  C_11
REMARK    7  A    between atoms: C_15  and  C_16
REMARK                            x       y       z     vdW  Elec       q    Type
REMARK                         _______ _______ _______ _____ _____    ______ ____
ROOT
ATOM      1  C   UNL     1      49.251   8.037  12.698  0.00  0.00    +0.000 C 
ATOM      2  C   UNL     1      50.107   8.123  11.441  0.00  0.00    +0.000 C 
ATOM      3  C   UNL     1      49.803   9.363  12.215  0.00  0.00    +0.000 C 
ENDROOT
BRANCH   1   4
ATOM      4  C   UNL     1      47.753   7.784  12.563  0.00  0.00    +0.000 A 
ATOM      5  C   UNL     1      46.816   8.823  12.648  0.00  0.00    +0.000 A 
ATOM      6  C   UNL     1      45.462   8.594  12.405  0.00  0.00    +0.000 A 
ATOM      7  C   UNL     1      45.020   7.327  12.026  0.00  0.00    +0.000 A 
ATOM      8  C   UNL     1      45.918   6.266  11.886  0.00  0.00    +0.000 A 
ATOM      9  C   UNL     1      47.263   6.508  12.232  0.00  0.00    +0.000 A 
BRANCH   8  10
ATOM     10  C   UNL     1      45.529   4.885  11.354  0.00  0.00    +0.000 C 
ATOM     11  C   UNL     1      44.354   4.955  10.349  0.00  0.00    +0.000 C 
ATOM     12  C   UNL     1      43.014   5.186  11.046  0.00  0.00    +0.000 C 
ATOM     13  N   UNL     1      42.726   4.130  12.018  0.00  0.00    +0.000 NA
ATOM     14  C   UNL     1      43.784   4.038  13.024  0.00  0.00    +0.000 C 
ATOM     15  C   UNL     1      45.168   3.815  12.405  0.00  0.00    +0.000 C 
ATOM     16  H   UNL     1      42.646   3.239  11.529  0.00  0.00    +0.000 HD
ENDBRANCH   8  10
ENDBRANCH   1   4
BRANCH   1  17
ATOM     17  N   UNL     1      49.871   7.261  13.798  0.00  0.00    +0.000 N 
ATOM     18  H   UNL     1      50.053   6.292  13.541  0.00  0.00    +0.000 HD
BRANCH  17  23
ATOM     19  C   UNL     1      48.653   6.397  17.229  0.00  0.00    +0.000 A 
ATOM     20  C   UNL     1      48.486   7.691  17.704  0.00  0.00    +0.000 A 
ATOM     21  N   UNL     1      48.782   8.801  16.992  0.00  0.00    +0.000 NA
ATOM     22  C   UNL     1      49.254   8.596  15.739  0.00  0.00    +0.000 A 
ATOM     23  C   UNL     1      49.464   7.345  15.150  0.00  0.00    +0.000 A 
ATOM     24  C   UNL     1      49.110   6.237  15.921  0.00  0.00    +0.000 A 
BRANCH  19  25
ATOM     25  O   UNL     1      48.297   5.370  18.059  0.00  0.00    +0.000 OA
BRANCH  25  27
ATOM     26  C   UNL     1      47.607   3.210  17.283  0.00  0.00    +0.000 C 
ATOM     27  C   UNL     1      47.162   4.619  17.620  0.00  0.00    +0.000 C 
ENDBRANCH  25  27
ENDBRANCH  19  25
ENDBRANCH  17  23
ENDBRANCH   1  17
TORSDOF 6
ENDMDL
MODEL 7
REMARK VINA RESULT:    -6.298      2.063      3.848
REMARK INTER + INTRA:          -8.650
REMARK INTER:                  -7.565
REMARK INTRA:                  -1.085
REMARK UNBOUND:                -0.142
REMARK  Name = 
REMARK  7 active torsions:
REMARK  status: ('A' for Active; 'I' for Inactive)
REMARK    1  A    between atoms: C_1  and  C_2
REMARK    2  A    between atoms: C_2  and  O_3
REMARK    3  A    between atoms: O_3  and  C_4
REMARK    4  A    between atoms: C_8  and  N_9
REMARK    5  A    between atoms: N_9  and  C_10
REMARK    6  A    between atoms: C_10  and  C_11
REMARK    7  A    between atoms: C_15  and  C_16
REMARK                            x       y       z     vdW  Elec       q    Type
REMARK                         _______ _______ _______ _____ _____    ______ ____
ROOT
ATOM      1  C   UNL     1      45.807   7.877  12.547  0.00  0.00    +0.000 C 
ATOM      2  C   UNL     1      45.115   9.234  12.539  0.00  0.00    +0.000 C 
ATOM      3  C   UNL     1      45.289   8.486  11.259  0.00  0.00    +0.000 C 
ENDROOT
BRANCH   1   4
ATOM      4  C   UNL     1      47.315   7.811  12.763  0.00  0.00    +0.000 A 
ATOM      5  C   UNL     1      48.209   7.654  11.694  0.00  0.00    +0.000 A 
ATOM      6  C   UNL     1      49.588   7.714  11.894  0.00  0.00    +0.000 A 
ATOM      7  C   UNL     1      50.104   7.980  13.161  0.00  0.00    +0.000 A 
ATOM      8  C   UNL     1      49.256   8.187  14.252  0.00  0.00    +0.000 A 
ATOM      9  C   UNL     1      47.873   8.023  14.036  0.00  0.00    +0.000 A 
BRANCH   8  10
ATOM     10  C   UNL     1      49.742   8.606  15.641  0.00  0.00    +0.000 C 
ATOM     11  C   UNL     1      51.159   8.065  15.955  0.00  0.00    +0.000 C 
ATOM     12  C   UNL     1      51.143   6.574  16.287  0.00  0.00    +0.000 C 
ATOM     13  N   UNL     1      50.279   6.289  17.434  0.00  0.00    +0.000 NA
ATOM     14  C   UNL     1      48.910   6.741  17.186  0.00  0.00    +0.000 C 
ATOM     15  C   UNL     1      48.837   8.231  16.834  0.00  0.00    +0.000 C 
ATOM     16  H   UNL     1      50.648   6.764  18.257  0.00  0.00    +0.000 HD
ENDBRANCH   8  10
ENDBRANCH   1   4
BRANCH   1  17
ATOM     17  N   UNL     1      45.070   6.829  13.292  0.00  0.00    +0.000 N 
ATOM     18  H   UNL     1      45.514   6.594  14.179  0.00  0.00    +0.000 HD
BRANCH  17  23
ATOM     19  C   UNL     1      44.610   3.747  11.220  0.00  0.00    +0.000 A 
ATOM     20  C   UNL     1      43.249   3.575  11.434  0.00  0.00    +0.000 A 
ATOM     21  N   UNL     1      42.503   4.370  12.233  0.00  0.00    +0.000 NA
ATOM     22  C   UNL     1      43.158   5.395  12.831  0.00  0.00    +0.000 A 
ATOM     23  C   UNL     1      44.522   5.672  12.693  0.00  0.00    +0.000 A 
ATOM     24  C   UNL     1      45.232   4.836  11.830  0.00  0.00    +0.000 A 
BRANCH  19  25
ATOM     25  O   UNL     1      45.231   2.871  10.373  0.00  0.00    +0.000 OA
BRANCH  25  27
ATOM     26  C   UNL     1      45.461   3.549   8.086  0.00  0.00    +0.000 C 
ATOM     27  C   UNL     1      44.627   2.768   9.080  0.00  0.00    +0.000 C 
ENDBRANCH  25  27
ENDBRANCH  19  25
ENDBRANCH  17  23
ENDBRANCH   1  17
TORSDOF 6
ENDMDL
MODEL 8
REMARK VINA RESULT:    -6.165      3.575      8.103
REMARK INTER + INTRA:          -8.470
REMARK INTER:                  -7.297
REMARK INTRA:                  -1.172
REMARK UNBOUND:                -0.142
REMARK  Name = 
REMARK  7 active torsions:
REMARK  status: ('A' for Active; 'I' for Inactive)
REMARK    1  A    between atoms: C_1  and  C_2
REMARK    2  A    between atoms: C_2  and  O_3
REMARK    3  A    between atoms: O_3  and  C_4
REMARK    4  A    between atoms: C_8  and  N_9
REMARK    5  A    between atoms: N_9  and  C_10
REMARK    6  A    between atoms: C_10  and  C_11
REMARK    7  A    between atoms: C_15  and  C_16
REMARK                            x       y       z     vdW  Elec       q    Type
REMARK                         _______ _______ _______ _____ _____    ______ ____
ROOT
ATOM      1  C   UNL     1      49.013   7.798  12.591  0.00  0.00    +0.000 C 
ATOM      2  C   UNL     1      49.884   7.676  11.347  0.00  0.00    +0.000 C 
ATOM      3  C   UNL     1      49.871   8.954  12.119  0.00  0.00    +0.000 C 
ENDROOT
BRANCH   1   4
ATOM      4  C   UNL     1      47.500   7.907  12.432  0.00  0.00    +0.000 A 
ATOM      5  C   UNL     1      46.827   9.127  12.581  0.00  0.00    +0.000 A 
ATOM      6  C   UNL     1      45.461   9.234  12.317  0.00  0.00    +0.000 A 
ATOM      7  C   UNL     1      44.746   8.130  11.852  0.00  0.00    +0.000 A 
ATOM      8  C   UNL     1      45.378   6.902  11.647  0.00  0.00    +0.000 A 
ATOM      9  C   UNL     1      46.736   6.802  12.015  0.00  0.00    +0.000 A 
BRANCH   8  10
ATOM     10  C   UNL     1      44.692   5.685  11.023  0.00  0.00    +0.000 C 
ATOM     11  C   UNL     1      43.201   5.581  11.428  0.00  0.00    +0.000 C 
ATOM     12  C   UNL     1      43.030   5.082  12.862  0.00  0.00    +0.000 C 
ATOM     13  N   UNL     1      43.650   3.770  13.051  0.00  0.00    +0.000 NA
ATOM     14  C   UNL     1      45.074   3.808  12.721  0.00  0.00    +0.000 C 
ATOM     15  C   UNL     1      45.336   4.310  11.297  0.00  0.00    +0.000 C 
ATOM     16  H   UNL     1      43.183   3.090  12.451  0.00  0.00    +0.000 HD
ENDBRANCH   8  10
ENDBRANCH   1   4
BRANCH   1  17
ATOM     17  N   UNL     1      49.414   6.899  13.699  0.00  0.00    +0.000 N 
ATOM     18  H   UNL     1      49.276   5.914  13.475  0.00  0.00    +0.000 HD
BRANCH  17  23
ATOM     19  C   UNL     1      49.073   8.522  17.054  0.00  0.00    +0.000 A 
ATOM     20  C   UNL     1      48.686   7.398  17.771  0.00  0.00    +0.000 A 
ATOM     21  N   UNL     1      48.495   6.178  17.220  0.00  0.00    +0.000 NA
ATOM     22  C   UNL     1      48.722   6.086  15.887  0.00  0.00    +0.000 A 
ATOM     23  C   UNL     1      49.116   7.142  15.059  0.00  0.00    +0.000 A 
ATOM     24  C   UNL     1      49.327   8.368  15.691  0.00  0.00    +0.000 A 
BRANCH  19  25
ATOM     25  O   UNL     1      49.240   9.687  17.750  0.00  0.00    +0.000 OA
BRANCH  25  27
ATOM     26  C   UNL     1      47.384  10.650  18.920  0.00  0.00    +0.000 C 
ATOM     27  C   UNL     1      48.576   9.721  19.016  0.00  0.00    +0.000 C 
ENDBRANCH  25  27
ENDBRANCH  19  25
ENDBRANCH  17  23
ENDBRANCH   1  17
TORSDOF 6
ENDMDL
MODEL 9
REMARK VINA RESULT:    -6.074      3.089      5.904
REMARK INTER + INTRA:          -8.347
REMARK INTER:                  -7.728
REMARK INTRA:                  -0.618
REMARK UNBOUND:                -0.142
REMARK  Name = 
REMARK  7 active torsions:
REMARK  status: ('A' for Active; 'I' for Inactive)
REMARK    1  A    between atoms: C_1  and  C_2
REMARK    2  A    between atoms: C_2  and  O_3
REMARK    3  A    between atoms: O_3  and  C_4
REMARK    4  A    between atoms: C_8  and  N_9
REMARK    5  A    between atoms: N_9  and  C_10
REMARK    6  A    between atoms: C_10  and  C_11
REMARK    7  A    between atoms: C_15  and  C_16
REMARK                            x       y       z     vdW  Elec       q    Type
REMARK                         _______ _______ _______ _____ _____    ______ ____
ROOT
ATOM      1  C   UNL     1      48.401   7.829  13.700  0.00  0.00    +0.000 C 
ATOM      2  C   UNL     1      48.609   9.256  13.209  0.00  0.00    +0.000 C 
ATOM      3  C   UNL     1      48.923   8.109  12.306  0.00  0.00    +0.000 C 
ENDROOT
BRANCH   1   4
ATOM      4  C   UNL     1      49.362   7.247  14.731  0.00  0.00    +0.000 A 
ATOM      5  C   UNL     1      50.723   7.582  14.745  0.00  0.00    +0.000 A 
ATOM      6  C   UNL     1      51.565   7.137  15.764  0.00  0.00    +0.000 A 
ATOM      7  C   UNL     1      51.053   6.382  16.819  0.00  0.00    +0.000 A 
ATOM      8  C   UNL     1      49.696   6.056  16.876  0.00  0.00    +0.000 A 
ATOM      9  C   UNL     1      48.893   6.439  15.782  0.00  0.00    +0.000 A 
BRANCH   8  10
ATOM     10  C   UNL     1      49.040   5.343  18.059  0.00  0.00    +0.000 C 
ATOM     11  C   UNL     1      49.702   3.976  18.360  0.00  0.00    +0.000 C 
ATOM     12  C   UNL     1      49.297   2.906  17.348  0.00  0.00    +0.000 C 
ATOM     13  N   UNL     1      47.846   2.718  17.319  0.00  0.00    +0.000 NA
ATOM     14  C   UNL     1      47.158   3.968  17.000  0.00  0.00    +0.000 C 
ATOM     15  C   UNL     1      47.519   5.102  17.966  0.00  0.00    +0.000 C 
ATOM     16  H   UNL     1      47.534   2.384  18.231  0.00  0.00    +0.000 HD
ENDBRANCH   8  10
ENDBRANCH   1   4
BRANCH   1  17
ATOM     17  N   UNL     1      46.985   7.487  13.974  0.00  0.00    +0.000 N 
ATOM     18  H   UNL     1      46.845   7.116  14.913  0.00  0.00    +0.000 HD
BRANCH  17  23
ATOM     19  C   UNL     1      45.421   4.897  11.772  0.00  0.00    +0.000 A 
ATOM     20  C   UNL     1      44.559   5.733  11.076  0.00  0.00    +0.000 A 
ATOM     21  N   UNL     1      44.437   7.059  11.313  0.00  0.00    +0.000 NA
ATOM     22  C   UNL     1      45.232   7.565  12.285  0.00  0.00    +0.000 A 
ATOM     23  C   UNL     1      46.140   6.827  13.053  0.00  0.00    +0.000 A 
ATOM     24  C   UNL     1      46.244   5.471  12.740  0.00  0.00    +0.000 A 
BRANCH  19  25
ATOM     25  O   UNL     1      45.446   3.578  11.412  0.00  0.00    +0.000 OA
BRANCH  25  27
ATOM     26  C   UNL     1      43.312   2.605  11.904  0.00  0.00    +0.000 C 
ATOM     27  C   UNL     1      44.237   3.103  10.813  0.00  0.00    +0.000 C 
ENDBRANCH  25  27
ENDBRANCH  19  25
ENDBRANCH  17  23
ENDBRANCH   1  17
TORSDOF 6
ENDMDL
