MODEL 1
REMARK VINA RESULT:    -8.703      0.000      0.000
REMARK INTER + INTRA:         -12.335
REMARK INTER:                 -11.247
REMARK INTRA:                  -1.089
REMARK UNBOUND:                -1.089
REMARK  Name = 
REMARK  6 active torsions:
REMARK  status: ('A' for Active; 'I' for Inactive)
REMARK    1  A    between atoms: C_1  and  C_2
REMARK    2  A    between atoms: N_7  and  C_8
REMARK    3  A    between atoms: C_8  and  C_9
REMARK    4  A    between atoms: C_12  and  C_13
REMARK    5  A    between atoms: C_13  and  N_14
REMARK    6  A    between atoms: C_15  and  C_17
REMARK                            x       y       z     vdW  Elec       q    Type
REMARK                         _______ _______ _______ _____ _____    ______ ____
ROOT
ATOM      1  C   UNL     1      44.830   5.341  10.660  0.00  0.00    +0.000 A 
ATOM      2  C   UNL     1      44.194   5.790  11.827  0.00  0.00    +0.000 A 
ATOM      3  C   UNL     1      44.847   6.659  12.714  0.00  0.00    +0.000 A 
ATOM      4  C   UNL     1      46.141   7.125  12.441  0.00  0.00    +0.000 A 
ATOM      5  C   UNL     1      46.772   6.684  11.269  0.00  0.00    +0.000 A 
ATOM      6  C   UNL     1      46.122   5.812  10.386  0.00  0.00    +0.000 A 
ENDROOT
BRANCH   1   7
ATOM      7  C   UNL     1      44.127   4.390   9.706  0.00  0.00    +0.000 C 
BRANCH   7  14
ATOM      8  C   UNL     1      47.600   2.315   5.019  0.00  0.00    +0.000 C 
ATOM      9  C   UNL     1      46.870   2.246   6.326  0.00  0.00    +0.000 A 
ATOM     10  C   UNL     1      46.918   1.114   7.132  0.00  0.00    +0.000 A 
ATOM     11  C   UNL     1      46.237   1.144   8.339  0.00  0.00    +0.000 A 
ATOM     12  N   UNL     1      45.526   2.207   8.790  0.00  0.00    +0.000 NA
ATOM     13  C   UNL     1      45.469   3.300   8.004  0.00  0.00    +0.000 A 
ATOM     14  N   UNL     1      44.779   4.454   8.406  0.00  0.00    +0.000 N 
ATOM     15  C   UNL     1      46.130   3.344   6.775  0.00  0.00    +0.000 A 
ATOM     16  H   UNL     1      44.129   4.725   7.676  0.00  0.00    +0.000 HD
ENDBRANCH   7  14
ENDBRANCH   1   7
BRANCH   4  17
ATOM     17  C   UNL     1      46.853   8.068  13.384  0.00  0.00    +0.000 C 
BRANCH  17  18
ATOM     18  N   UNL     1      47.351   7.385  14.553  0.00  0.00    +0.000 N 
ATOM     19  C   UNL     1      48.612   6.840  14.589  0.00  0.00    +0.000 C 
ATOM     20  O   UNL     1      49.389   6.919  13.642  0.00  0.00    +0.000 OA
ATOM     21  H   UNL     1      46.660   7.064  15.222  0.00  0.00    +0.000 HD
BRANCH  19  22
ATOM     22  C   UNL     1      49.007   6.207  15.855  0.00  0.00    +0.000 A 
ATOM     23  C   UNL     1      50.075   6.713  16.582  0.00  0.00    +0.000 A 
ATOM     24  S   UNL     1      50.358   5.884  18.048  0.00  0.00    +0.000 S 
ATOM     25  C   UNL     1      49.098   4.786  17.733  0.00  0.00    +0.000 A 
ATOM     26  N   UNL     1      48.821   3.769  18.594  0.00  0.00    +0.000 NA
ATOM     27  C   UNL     1      47.859   2.996  18.219  0.00  0.00    +0.000 A 
ATOM     28  N   UNL     1      47.143   3.154  17.057  0.00  0.00    +0.000 N 
ATOM     29  C   UNL     1      47.361   4.185  16.180  0.00  0.00    +0.000 A 
ATOM     30  O   UNL     1      46.660   4.329  15.185  0.00  0.00    +0.000 OA
ATOM     31  C   UNL     1      48.453   5.065  16.544  0.00  0.00    +0.000 A 
ATOM     32  H   UNL     1      46.388   2.523  16.829  0.00  0.00    +0.000 HD
ENDBRANCH  19  22
ENDBRANCH  17  18
ENDBRANCH   4  17
TORSDOF 5
ENDMDL
MODEL 2
REMARK VINA RESULT:    -8.195      1.112      1.555
REMARK INTER + INTRA:         -11.678
REMARK INTER:                 -10.969
REMARK INTRA:                  -0.710
REMARK UNBOUND:                -1.089
REMARK  Name = 
REMARK  6 active torsions:
REMARK  status: ('A' for Active; 'I' for Inactive)
REMARK    1  A    between atoms: C_1  and  C_2
REMARK    2  A    between atoms: N_7  and  C_8
REMARK    3  A    between atoms: C_8  and  C_9
REMARK    4  A    between atoms: C_12  and  C_13
REMARK    5  A    between atoms: C_13  and  N_14
REMARK    6  A    between atoms: C_15  and  C_17
REMARK                            x       y       z     vdW  Elec       q    Type
REMARK                         _______ _______ _______ _____ _____    ______ ____
ROOT
ATOM      1  C   UNL     1      44.628   5.450  11.278  0.00  0.00    +0.000 A 
ATOM      2  C   UNL     1      45.488   4.824  12.192  0.00  0.00    +0.000 A 
ATOM      3  C   UNL     1      46.451   5.563  12.896  0.00  0.00    +0.000 A 
ATOM      4  C   UNL     1      46.558   6.951  12.726  0.00  0.00    +0.000 A 
ATOM      5  C   UNL     1      45.689   7.577  11.820  0.00  0.00    +0.000 A 
ATOM      6  C   UNL     1      44.731   6.839  11.113  0.00  0.00    +0.000 A 
ENDROOT
BRANCH   1   7
ATOM      7  C   UNL     1      43.593   4.648  10.507  0.00  0.00    +0.000 C 
BRANCH   7  14
ATOM      8  C   UNL     1      46.885   0.328   7.536  0.00  0.00    +0.000 C 
ATOM      9  C   UNL     1      46.386   1.706   7.845  0.00  0.00    +0.000 A 
ATOM     10  C   UNL     1      46.755   2.807   7.078  0.00  0.00    +0.000 A 
ATOM     11  C   UNL     1      46.226   4.042   7.416  0.00  0.00    +0.000 A 
ATOM     12  N   UNL     1      45.368   4.252   8.444  0.00  0.00    +0.000 NA
ATOM     13  C   UNL     1      45.019   3.189   9.195  0.00  0.00    +0.000 A 
ATOM     14  N   UNL     1      44.114   3.312  10.261  0.00  0.00    +0.000 N 
ATOM     15  C   UNL     1      45.512   1.912   8.916  0.00  0.00    +0.000 A 
ATOM     16  H   UNL     1      44.528   2.913  11.097  0.00  0.00    +0.000 HD
ENDBRANCH   7  14
ENDBRANCH   1   7
BRANCH   4  17
ATOM     17  C   UNL     1      47.585   7.760  13.484  0.00  0.00    +0.000 C 
BRANCH  17  18
ATOM     18  N   UNL     1      47.818   7.230  14.804  0.00  0.00    +0.000 N 
ATOM     19  C   UNL     1      49.081   6.913  15.243  0.00  0.00    +0.000 C 
ATOM     20  O   UNL     1      50.080   7.079  14.547  0.00  0.00    +0.000 OA
ATOM     21  H   UNL     1      47.019   6.828  15.282  0.00  0.00    +0.000 HD
BRANCH  19  22
ATOM     22  C   UNL     1      49.181   6.418  16.624  0.00  0.00    +0.000 A 
ATOM     23  C   UNL     1      49.786   7.199  17.599  0.00  0.00    +0.000 A 
ATOM     24  S   UNL     1      49.767   6.488  19.151  0.00  0.00    +0.000 S 
ATOM     25  C   UNL     1      49.001   5.089  18.561  0.00  0.00    +0.000 A 
ATOM     26  N   UNL     1      48.719   4.042  19.384  0.00  0.00    +0.000 NA
ATOM     27  C   UNL     1      48.162   3.036  18.799  0.00  0.00    +0.000 A 
ATOM     28  N   UNL     1      47.854   2.987  17.461  0.00  0.00    +0.000 N 
ATOM     29  C   UNL     1      48.084   4.032  16.603  0.00  0.00    +0.000 A 
ATOM     30  O   UNL     1      47.739   3.975  15.429  0.00  0.00    +0.000 OA
ATOM     31  C   UNL     1      48.736   5.176  17.208  0.00  0.00    +0.000 A 
ATOM     32  H   UNL     1      47.401   2.175  17.068  0.00  0.00    +0.000 HD
ENDBRANCH  19  22
ENDBRANCH  17  18
ENDBRANCH   4  17
TORSDOF 5
ENDMDL
MODEL 3
REMARK VINA RESULT:    -8.064      1.992      2.350
REMARK INTER + INTRA:         -11.510
REMARK INTER:                 -10.710
REMARK INTRA:                  -0.800
REMARK UNBOUND:                -1.089
REMARK  Name = 
REMARK  6 active torsions:
REMARK  status: ('A' for Active; 'I' for Inactive)
REMARK    1  A    between atoms: C_1  and  C_2
REMARK    2  A    between atoms: N_7  and  C_8
REMARK    3  A    between atoms: C_8  and  C_9
REMARK    4  A    between atoms: C_12  and  C_13
REMARK    5  A    between atoms: C_13  and  N_14
REMARK    6  A    between atoms: C_15  and  C_17
REMARK                            x       y       z     vdW  Elec       q    Type
REMARK                         _______ _______ _______ _____ _____    ______ ____
ROOT
ATOM      1  C   UNL     1      45.048   4.976  11.070  0.00  0.00    +0.000 A 
ATOM      2  C   UNL     1      45.360   4.353  12.287  0.00  0.00    +0.000 A 
ATOM      3  C   UNL     1      46.259   4.943  13.189  0.00  0.00    +0.000 A 
ATOM      4  C   UNL     1      46.843   6.187  12.910  0.00  0.00    +0.000 A 
ATOM      5  C   UNL     1      46.522   6.815  11.699  0.00  0.00    +0.000 A 
ATOM      6  C   UNL     1      45.629   6.223  10.795  0.00  0.00    +0.000 A 
ENDROOT
BRANCH   1   7
ATOM      7  C   UNL     1      44.085   4.331  10.088  0.00  0.00    +0.000 C 
BRANCH   7  14
ATOM      8  C   UNL     1      47.215   2.660   5.015  0.00  0.00    +0.000 C 
ATOM      9  C   UNL     1      46.616   2.495   6.378  0.00  0.00    +0.000 A 
ATOM     10  C   UNL     1      46.804   1.336   7.124  0.00  0.00    +0.000 A 
ATOM     11  C   UNL     1      46.238   1.276   8.388  0.00  0.00    +0.000 A 
ATOM     12  N   UNL     1      45.513   2.275   8.950  0.00  0.00    +0.000 NA
ATOM     13  C   UNL     1      45.321   3.394   8.223  0.00  0.00    +0.000 A 
ATOM     14  N   UNL     1      44.607   4.487   8.739  0.00  0.00    +0.000 N 
ATOM     15  C   UNL     1      45.860   3.527   6.942  0.00  0.00    +0.000 A 
ATOM     16  H   UNL     1      43.877   4.747   8.084  0.00  0.00    +0.000 HD
ENDBRANCH   7  14
ENDBRANCH   1   7
BRANCH   4  17
ATOM     17  C   UNL     1      47.806   6.838  13.877  0.00  0.00    +0.000 C 
BRANCH  17  18
ATOM     18  N   UNL     1      47.765   6.214  15.177  0.00  0.00    +0.000 N 
ATOM     19  C   UNL     1      48.891   6.094  15.956  0.00  0.00    +0.000 C 
ATOM     20  O   UNL     1      49.985   6.524  15.601  0.00  0.00    +0.000 OA
ATOM     21  H   UNL     1      46.970   5.616  15.371  0.00  0.00    +0.000 HD
BRANCH  19  22
ATOM     22  C   UNL     1      48.702   5.473  17.275  0.00  0.00    +0.000 A 
ATOM     23  C   UNL     1      48.859   4.103  17.428  0.00  0.00    +0.000 A 
ATOM     24  S   UNL     1      48.651   3.566  19.035  0.00  0.00    +0.000 S 
ATOM     25  C   UNL     1      48.288   5.139  19.570  0.00  0.00    +0.000 A 
ATOM     26  N   UNL     1      47.970   5.382  20.871  0.00  0.00    +0.000 NA
ATOM     27  C   UNL     1      47.691   6.614  21.134  0.00  0.00    +0.000 A 
ATOM     28  N   UNL     1      47.708   7.629  20.209  0.00  0.00    +0.000 N 
ATOM     29  C   UNL     1      48.060   7.438  18.897  0.00  0.00    +0.000 A 
ATOM     30  O   UNL     1      48.125   8.379  18.115  0.00  0.00    +0.000 OA
ATOM     31  C   UNL     1      48.355   6.063  18.547  0.00  0.00    +0.000 A 
ATOM     32  H   UNL     1      47.497   8.577  20.483  0.00  0.00    +0.000 HD
ENDBRANCH  19  22
ENDBRANCH  17  18
ENDBRANCH   4  17
TORSDOF 5
ENDMDL
MODEL 4
REMARK VINA RESULT:    -7.927      2.635      4.535
REMARK INTER + INTRA:         -11.333
REMARK INTER:                 -10.341
REMARK INTRA:                  -0.992
REMARK UNBOUND:                -1.089
REMARK  Name = 
REMARK  6 active torsions:
REMARK  status: ('A' for Active; 'I' for Inactive)
REMARK    1  A    between atoms: C_1  and  C_2
REMARK    2  A    between atoms: N_7  and  C_8
REMARK    3  A    between atoms: C_8  and  C_9
REMARK    4  A    between atoms: C_12  and  C_13
REMARK    5  A    between atoms: C_13  and  N_14
REMARK    6  A    between atoms: C_15  and  C_17
REMARK                            x       y       z     vdW  Elec       q    Type
REMARK                         _______ _______ _______ _____ _____    ______ ____
ROOT
ATOM      1  C   UNL     1      44.919   4.579  10.944  0.00  0.00    +0.000 A 
ATOM      2  C   UNL     1      45.054   3.737  12.058  0.00  0.00    +0.000 A 
ATOM      3  C   UNL     1      45.892   4.086  13.128  0.00  0.00    +0.000 A 
ATOM      4  C   UNL     1      46.592   5.302  13.125  0.00  0.00    +0.000 A 
ATOM      5  C   UNL     1      46.447   6.148  12.016  0.00  0.00    +0.000 A 
ATOM      6  C   UNL     1      45.615   5.797  10.945  0.00  0.00    +0.000 A 
ENDROOT
BRANCH   1   7
ATOM      7  C   UNL     1      44.021   4.195   9.780  0.00  0.00    +0.000 C 
BRANCH   7  14
ATOM      8  C   UNL     1      47.769   2.588   5.122  0.00  0.00    +0.000 C 
ATOM      9  C   UNL     1      46.962   2.391   6.369  0.00  0.00    +0.000 A 
ATOM     10  C   UNL     1      46.963   1.182   7.057  0.00  0.00    +0.000 A 
ATOM     11  C   UNL     1      46.210   1.093   8.218  0.00  0.00    +0.000 A 
ATOM     12  N   UNL     1      45.473   2.108   8.731  0.00  0.00    +0.000 NA
ATOM     13  C   UNL     1      45.463   3.277   8.059  0.00  0.00    +0.000 A 
ATOM     14  N   UNL     1      44.749   4.387   8.535  0.00  0.00    +0.000 N 
ATOM     15  C   UNL     1      46.196   3.442   6.882  0.00  0.00    +0.000 A 
ATOM     16  H   UNL     1      44.143   4.735   7.799  0.00  0.00    +0.000 HD
ENDBRANCH   7  14
ENDBRANCH   1   7
BRANCH   4  17
ATOM     17  C   UNL     1      47.491   5.694  14.274  0.00  0.00    +0.000 C 
BRANCH  17  18
ATOM     18  N   UNL     1      47.762   7.110  14.286  0.00  0.00    +0.000 N 
ATOM     19  C   UNL     1      49.005   7.606  14.598  0.00  0.00    +0.000 C 
ATOM     20  O   UNL     1      49.955   6.876  14.866  0.00  0.00    +0.000 OA
ATOM     21  H   UNL     1      46.959   7.727  14.348  0.00  0.00    +0.000 HD
BRANCH  19  22
ATOM     22  C   UNL     1      49.154   9.067  14.534  0.00  0.00    +0.000 A 
ATOM     23  C   UNL     1      49.352   9.798  15.698  0.00  0.00    +0.000 A 
ATOM     24  S   UNL     1      49.553  11.471  15.427  0.00  0.00    +0.000 S 
ATOM     25  C   UNL     1      49.327  11.283  13.752  0.00  0.00    +0.000 A 
ATOM     26  N   UNL     1      49.342  12.357  12.917  0.00  0.00    +0.000 NA
ATOM     27  C   UNL     1      49.131  12.074  11.675  0.00  0.00    +0.000 A 
ATOM     28  N   UNL     1      48.911  10.806  11.194  0.00  0.00    +0.000 N 
ATOM     29  C   UNL     1      48.926   9.691  11.993  0.00  0.00    +0.000 A 
ATOM     30  O   UNL     1      48.788   8.570  11.517  0.00  0.00    +0.000 OA
ATOM     31  C   UNL     1      49.131   9.962  13.401  0.00  0.00    +0.000 A 
ATOM     32  H   UNL     1      48.770  10.649  10.207  0.00  0.00    +0.000 HD
ENDBRANCH  19  22
ENDBRANCH  17  18
ENDBRANCH   4  17
TORSDOF 5
ENDMDL
MODEL 5
REMARK VINA RESULT:    -7.578      1.848      2.729
REMARK INTER + INTRA:         -10.882
REMARK INTER:                 -10.132
REMARK INTRA:                  -0.749
REMARK UNBOUND:                -1.089
REMARK  Name = 
REMARK  6 active torsions:
REMARK  status: ('A' for Active; 'I' for Inactive)
REMARK    1  A    between atoms: C_1  and  C_2
REMARK    2  A    between atoms: N_7  and  C_8
REMARK    3  A    between atoms: C_8  and  C_9
REMARK    4  A    between atoms: C_12  and  C_13
REMARK    5  A    between atoms: C_13  and  N_14
REMARK    6  A    between atoms: C_15  and  C_17
REMARK                            x       y       z     vdW  Elec       q    Type
REMARK                         _______ _______ _______ _____ _____    ______ ____
ROOT
ATOM      1  C   UNL     1      45.094   5.204  10.946  0.00  0.00    +0.000 A 
ATOM      2  C   UNL     1      46.085   6.110  10.540  0.00  0.00    +0.000 A 
ATOM      3  C   UNL     1      46.833   6.829  11.485  0.00  0.00    +0.000 A 
ATOM      4  C   UNL     1      46.630   6.638  12.859  0.00  0.00    +0.000 A 
ATOM      5  C   UNL     1      45.647   5.724  13.263  0.00  0.00    +0.000 A 
ATOM      6  C   UNL     1      44.896   5.009  12.320  0.00  0.00    +0.000 A 
ENDROOT
BRANCH   1   7
ATOM      7  C   UNL     1      44.275   4.434   9.923  0.00  0.00    +0.000 C 
BRANCH   7  14
ATOM      8  C   UNL     1      47.584   2.520   5.052  0.00  0.00    +0.000 C 
ATOM      9  C   UNL     1      46.871   2.398   6.364  0.00  0.00    +0.000 A 
ATOM     10  C   UNL     1      46.881   1.214   7.095  0.00  0.00    +0.000 A 
ATOM     11  C   UNL     1      46.219   1.195   8.313  0.00  0.00    +0.000 A 
ATOM     12  N   UNL     1      45.562   2.256   8.844  0.00  0.00    +0.000 NA
ATOM     13  C   UNL     1      45.542   3.400   8.131  0.00  0.00    +0.000 A 
ATOM     14  N   UNL     1      44.910   4.554   8.619  0.00  0.00    +0.000 N 
ATOM     15  C   UNL     1      46.186   3.495   6.896  0.00  0.00    +0.000 A 
ATOM     16  H   UNL     1      44.262   4.900   7.919  0.00  0.00    +0.000 HD
ENDBRANCH   7  14
ENDBRANCH   1   7
BRANCH   4  17
ATOM     17  C   UNL     1      47.435   7.400  13.886  0.00  0.00    +0.000 C 
BRANCH  17  18
ATOM     18  N   UNL     1      48.204   6.517  14.729  0.00  0.00    +0.000 N 
ATOM     19  C   UNL     1      48.706   6.930  15.940  0.00  0.00    +0.000 C 
ATOM     20  O   UNL     1      48.513   8.060  16.380  0.00  0.00    +0.000 OA
ATOM     21  H   UNL     1      48.608   5.701  14.284  0.00  0.00    +0.000 HD
BRANCH  19  22
ATOM     22  C   UNL     1      49.438   5.918  16.715  0.00  0.00    +0.000 A 
ATOM     23  C   UNL     1      48.743   4.959  17.439  0.00  0.00    +0.000 A 
ATOM     24  S   UNL     1      49.755   3.838  18.235  0.00  0.00    +0.000 S 
ATOM     25  C   UNL     1      51.156   4.630  17.685  0.00  0.00    +0.000 A 
ATOM     26  N   UNL     1      52.395   4.193  18.041  0.00  0.00    +0.000 NA
ATOM     27  C   UNL     1      53.368   4.902  17.576  0.00  0.00    +0.000 A 
ATOM     28  N   UNL     1      53.210   6.008  16.777  0.00  0.00    +0.000 N 
ATOM     29  C   UNL     1      51.984   6.460  16.360  0.00  0.00    +0.000 A 
ATOM     30  O   UNL     1      51.886   7.414  15.596  0.00  0.00    +0.000 OA
ATOM     31  C   UNL     1      50.857   5.713  16.882  0.00  0.00    +0.000 A 
ATOM     32  H   UNL     1      54.015   6.509  16.430  0.00  0.00    +0.000 HD
ENDBRANCH  19  22
ENDBRANCH  17  18
ENDBRANCH   4  17
TORSDOF 5
ENDMDL
MODEL 6
REMARK VINA RESULT:    -7.485      4.674      9.391
REMARK INTER + INTRA:         -10.761
REMARK INTER:                  -9.976
REMARK INTRA:                  -0.785
REMARK UNBOUND:                -1.089
REMARK  Name = 
REMARK  6 active torsions:
REMARK  status: ('A' for Active; 'I' for Inactive)
REMARK    1  A    between atoms: C_1  and  C_2
REMARK    2  A    between atoms: N_7  and  C_8
REMARK    3  A    between atoms: C_8  and  C_9
REMARK    4  A    between atoms: C_12  and  C_13
REMARK    5  A    between atoms: C_13  and  N_14
REMARK    6  A    between atoms: C_15  and  C_17
REMARK                            x       y       z     vdW  Elec       q    Type
REMARK                         _______ _______ _______ _____ _____    ______ ____
ROOT
ATOM      1  C   UNL     1      51.561   2.846  17.707  0.00  0.00    +0.000 A 
ATOM      2  C   UNL     1      50.746   1.860  17.132  0.00  0.00    +0.000 A 
ATOM      3  C   UNL     1      49.376   2.086  16.930  0.00  0.00    +0.000 A 
ATOM      4  C   UNL     1      48.792   3.315  17.270  0.00  0.00    +0.000 A 
ATOM      5  C   UNL     1      49.610   4.304  17.834  0.00  0.00    +0.000 A 
ATOM      6  C   UNL     1      50.977   4.077  18.041  0.00  0.00    +0.000 A 
ENDROOT
BRANCH   1   7
ATOM      7  C   UNL     1      53.042   2.597  17.937  0.00  0.00    +0.000 C 
BRANCH   7  14
ATOM      8  C   UNL     1      54.838  -3.272  18.746  0.00  0.00    +0.000 C 
ATOM      9  C   UNL     1      54.714  -1.957  18.040  0.00  0.00    +0.000 A 
ATOM     10  C   UNL     1      55.222  -1.762  16.759  0.00  0.00    +0.000 A 
ATOM     11  C   UNL     1      55.039  -0.523  16.167  0.00  0.00    +0.000 A 
ATOM     12  N   UNL     1      54.394   0.517  16.751  0.00  0.00    +0.000 NA
ATOM     13  C   UNL     1      53.911   0.333  17.996  0.00  0.00    +0.000 A 
ATOM     14  N   UNL     1      53.206   1.347  18.663  0.00  0.00    +0.000 N 
ATOM     15  C   UNL     1      54.057  -0.888  18.657  0.00  0.00    +0.000 A 
ATOM     16  H   UNL     1      53.623   1.498  19.576  0.00  0.00    +0.000 HD
ENDBRANCH   7  14
ENDBRANCH   1   7
BRANCH   4  17
ATOM     17  C   UNL     1      47.320   3.574  17.049  0.00  0.00    +0.000 C 
BRANCH  17  18
ATOM     18  N   UNL     1      47.096   4.559  16.020  0.00  0.00    +0.000 N 
ATOM     19  C   UNL     1      47.096   4.224  14.687  0.00  0.00    +0.000 C 
ATOM     20  O   UNL     1      47.268   3.071  14.299  0.00  0.00    +0.000 OA
ATOM     21  H   UNL     1      47.231   5.529  16.280  0.00  0.00    +0.000 HD
BRANCH  19  22
ATOM     22  C   UNL     1      46.817   5.317  13.745  0.00  0.00    +0.000 A 
ATOM     23  C   UNL     1      47.786   6.276  13.484  0.00  0.00    +0.000 A 
ATOM     24  S   UNL     1      47.305   7.437  12.330  0.00  0.00    +0.000 S 
ATOM     25  C   UNL     1      45.765   6.732  12.181  0.00  0.00    +0.000 A 
ATOM     26  N   UNL     1      44.822   7.269  11.360  0.00  0.00    +0.000 NA
ATOM     27  C   UNL     1      43.691   6.649  11.364  0.00  0.00    +0.000 A 
ATOM     28  N   UNL     1      43.420   5.531  12.115  0.00  0.00    +0.000 N 
ATOM     29  C   UNL     1      44.351   4.932  12.925  0.00  0.00    +0.000 A 
ATOM     30  O   UNL     1      44.092   3.899  13.531  0.00  0.00    +0.000 OA
ATOM     31  C   UNL     1      45.630   5.610  12.976  0.00  0.00    +0.000 A 
ATOM     32  H   UNL     1      42.518   5.081  12.059  0.00  0.00    +0.000 HD
ENDBRANCH  19  22
ENDBRANCH  17  18
ENDBRANCH   4  17
TORSDOF 5
ENDMDL
MODEL 7
REMARK VINA RESULT:    -7.433      2.464      2.825
REMARK INTER + INTRA:         -10.694
REMARK INTER:                  -9.918
REMARK INTRA:                  -0.777
REMARK UNBOUND:                -1.089
REMARK  Name = 
REMARK  6 active torsions:
REMARK  status: ('A' for Active; 'I' for Inactive)
REMARK    1  A    between atoms: C_1  and  C_2
REMARK    2  A    between atoms: N_7  and  C_8
REMARK    3  A    between atoms: C_8  and  C_9
REMARK    4  A    between atoms: C_12  and  C_13
REMARK    5  A    between atoms: C_13  and  N_14
REMARK    6  A    between atoms: C_15  and  C_17
REMARK                            x       y       z     vdW  Elec       q    Type
REMARK                         _______ _______ _______ _____ _____    ______ ____
ROOT
ATOM      1  C   UNL     1      45.478   6.657  11.978  0.00  0.00    +0.000 A 
ATOM      2  C   UNL     1      45.127   7.999  12.193  0.00  0.00    +0.000 A 
ATOM      3  C   UNL     1      45.930   8.835  12.983  0.00  0.00    +0.000 A 
ATOM      4  C   UNL     1      47.120   8.359  13.553  0.00  0.00    +0.000 A 
ATOM      5  C   UNL     1      47.475   7.022  13.328  0.00  0.00    +0.000 A 
ATOM      6  C   UNL     1      46.671   6.185  12.543  0.00  0.00    +0.000 A 
ENDROOT
BRANCH   1   7
ATOM      7  C   UNL     1      44.603   5.749  11.131  0.00  0.00    +0.000 C 
BRANCH   7  14
ATOM      8  C   UNL     1      46.714   2.908   6.052  0.00  0.00    +0.000 C 
ATOM      9  C   UNL     1      46.085   3.014   7.407  0.00  0.00    +0.000 A 
ATOM     10  C   UNL     1      45.717   1.886   8.133  0.00  0.00    +0.000 A 
ATOM     11  C   UNL     1      45.166   2.072   9.392  0.00  0.00    +0.000 A 
ATOM     12  N   UNL     1      44.963   3.284   9.966  0.00  0.00    +0.000 NA
ATOM     13  C   UNL     1      45.309   4.377   9.259  0.00  0.00    +0.000 A 
ATOM     14  N   UNL     1      45.159   5.668   9.789  0.00  0.00    +0.000 N 
ATOM     15  C   UNL     1      45.869   4.269   7.984  0.00  0.00    +0.000 A 
ATOM     16  H   UNL     1      44.635   6.239   9.134  0.00  0.00    +0.000 HD
ENDBRANCH   7  14
ENDBRANCH   1   7
BRANCH   4  17
ATOM     17  C   UNL     1      47.998   9.252  14.400  0.00  0.00    +0.000 C 
BRANCH  17  18
ATOM     18  N   UNL     1      47.708   9.113  15.806  0.00  0.00    +0.000 N 
ATOM     19  C   UNL     1      48.601   8.531  16.673  0.00  0.00    +0.000 C 
ATOM     20  O   UNL     1      49.697   8.116  16.308  0.00  0.00    +0.000 OA
ATOM     21  H   UNL     1      46.734   9.183  16.079  0.00  0.00    +0.000 HD
BRANCH  19  22
ATOM     22  C   UNL     1      48.197   8.489  18.086  0.00  0.00    +0.000 A 
ATOM     23  C   UNL     1      47.955   9.669  18.776  0.00  0.00    +0.000 A 
ATOM     24  S   UNL     1      47.447   9.426  20.387  0.00  0.00    +0.000 S 
ATOM     25  C   UNL     1      47.587   7.738  20.235  0.00  0.00    +0.000 A 
ATOM     26  N   UNL     1      47.328   6.914  21.286  0.00  0.00    +0.000 NA
ATOM     27  C   UNL     1      47.499   5.659  21.039  0.00  0.00    +0.000 A 
ATOM     28  N   UNL     1      47.903   5.154  19.827  0.00  0.00    +0.000 N 
ATOM     29  C   UNL     1      48.137   5.943  18.730  0.00  0.00    +0.000 A 
ATOM     30  O   UNL     1      48.435   5.450  17.648  0.00  0.00    +0.000 OA
ATOM     31  C   UNL     1      47.985   7.364  18.966  0.00  0.00    +0.000 A 
ATOM     32  H   UNL     1      48.001   4.158  19.693  0.00  0.00    +0.000 HD
ENDBRANCH  19  22
ENDBRANCH  17  18
ENDBRANCH   4  17
TORSDOF 5
ENDMDL
MODEL 8
REMARK VINA RESULT:    -7.290      3.086      4.016
REMARK INTER + INTRA:         -10.510
REMARK INTER:                  -9.699
REMARK INTRA:                  -0.810
REMARK UNBOUND:                -1.089
REMARK  Name = 
REMARK  6 active torsions:
REMARK  status: ('A' for Active; 'I' for Inactive)
REMARK    1  A    between atoms: C_1  and  C_2
REMARK    2  A    between atoms: N_7  and  C_8
REMARK    3  A    between atoms: C_8  and  C_9
REMARK    4  A    between atoms: C_12  and  C_13
REMARK    5  A    between atoms: C_13  and  N_14
REMARK    6  A    between atoms: C_15  and  C_17
REMARK                            x       y       z     vdW  Elec       q    Type
REMARK                         _______ _______ _______ _____ _____    ______ ____
ROOT
ATOM      1  C   UNL     1      45.511   5.688  12.236  0.00  0.00    +0.000 A 
ATOM      2  C   UNL     1      45.705   4.615  13.119  0.00  0.00    +0.000 A 
ATOM      3  C   UNL     1      46.687   4.674  14.119  0.00  0.00    +0.000 A 
ATOM      4  C   UNL     1      47.480   5.820  14.281  0.00  0.00    +0.000 A 
ATOM      5  C   UNL     1      47.277   6.896  13.406  0.00  0.00    +0.000 A 
ATOM      6  C   UNL     1      46.299   6.835  12.404  0.00  0.00    +0.000 A 
ENDROOT
BRANCH   1   7
ATOM      7  C   UNL     1      44.455   5.619  11.146  0.00  0.00    +0.000 C 
BRANCH   7  14
ATOM      8  C   UNL     1      46.934   3.058   6.084  0.00  0.00    +0.000 C 
ATOM      9  C   UNL     1      46.202   3.091   7.390  0.00  0.00    +0.000 A 
ATOM     10  C   UNL     1      45.771   1.927   8.018  0.00  0.00    +0.000 A 
ATOM     11  C   UNL     1      45.126   2.046   9.239  0.00  0.00    +0.000 A 
ATOM     12  N   UNL     1      44.887   3.223   9.868  0.00  0.00    +0.000 NA
ATOM     13  C   UNL     1      45.294   4.353   9.255  0.00  0.00    +0.000 A 
ATOM     14  N   UNL     1      45.112   5.612   9.848  0.00  0.00    +0.000 N 
ATOM     15  C   UNL     1      45.951   4.313   8.023  0.00  0.00    +0.000 A 
ATOM     16  H   UNL     1      44.645   6.226   9.189  0.00  0.00    +0.000 HD
ENDBRANCH   7  14
ENDBRANCH   1   7
BRANCH   4  17
ATOM     17  C   UNL     1      48.535   5.899  15.359  0.00  0.00    +0.000 C 
BRANCH  17  18
ATOM     18  N   UNL     1      48.127   6.750  16.450  0.00  0.00    +0.000 N 
ATOM     19  C   UNL     1      48.722   6.676  17.686  0.00  0.00    +0.000 C 
ATOM     20  O   UNL     1      49.643   5.901  17.927  0.00  0.00    +0.000 OA
ATOM     21  H   UNL     1      47.214   7.184  16.371  0.00  0.00    +0.000 HD
BRANCH  19  22
ATOM     22  C   UNL     1      48.236   7.628  18.696  0.00  0.00    +0.000 A 
ATOM     23  C   UNL     1      48.019   7.207  20.001  0.00  0.00    +0.000 A 
ATOM     24  S   UNL     1      47.505   8.455  21.045  0.00  0.00    +0.000 S 
ATOM     25  C   UNL     1      47.500   9.588  19.777  0.00  0.00    +0.000 A 
ATOM     26  N   UNL     1      47.114  10.876  19.987  0.00  0.00    +0.000 NA
ATOM     27  C   UNL     1      47.132  11.620  18.933  0.00  0.00    +0.000 A 
ATOM     28  N   UNL     1      47.511  11.190  17.684  0.00  0.00    +0.000 N 
ATOM     29  C   UNL     1      47.944   9.913  17.434  0.00  0.00    +0.000 A 
ATOM     30  O   UNL     1      48.333   9.583  16.320  0.00  0.00    +0.000 OA
ATOM     31  C   UNL     1      47.913   9.031  18.583  0.00  0.00    +0.000 A 
ATOM     32  H   UNL     1      47.520  11.829  16.902  0.00  0.00    +0.000 HD
ENDBRANCH  19  22
ENDBRANCH  17  18
ENDBRANCH   4  17
TORSDOF 5
ENDMDL
MODEL 9
REMARK VINA RESULT:    -6.998      4.135      5.987
REMARK INTER + INTRA:         -10.132
REMARK INTER:                  -9.342
REMARK INTRA:                  -0.790
REMARK UNBOUND:                -1.089
REMARK  Name = 
REMARK  6 active torsions:
REMARK  status: ('A' for Active; 'I' for Inactive)
REMARK    1  A    between atoms: C_1  and  C_2
REMARK    2  A    between atoms: N_7  and  C_8
REMARK    3  A    between atoms: C_8  and  C_9
REMARK    4  A    between atoms: C_12  and  C_13
REMARK    5  A    between atoms: C_13  and  N_14
REMARK    6  A    between atoms: C_15  and  C_17
REMARK                            x       y       z     vdW  Elec       q    Type
REMARK                         _______ _______ _______ _____ _____    ______ ____
ROOT
ATOM      1  C   UNL     1      45.259   7.302  11.971  0.00  0.00    +0.000 A 
ATOM      2  C   UNL     1      44.307   6.358  12.384  0.00  0.00    +0.000 A 
ATOM      3  C   UNL     1      44.689   5.225  13.119  0.00  0.00    +0.000 A 
ATOM      4  C   UNL     1      46.028   5.023  13.484  0.00  0.00    +0.000 A 
ATOM      5  C   UNL     1      46.977   5.973  13.079  0.00  0.00    +0.000 A 
ATOM      6  C   UNL     1      46.596   7.102  12.342  0.00  0.00    +0.000 A 
ENDROOT
BRANCH   1   7
ATOM      7  C   UNL     1      44.847   8.523  11.165  0.00  0.00    +0.000 C 
BRANCH   7  14
ATOM      8  C   UNL     1      39.407  11.317  10.202  0.00  0.00    +0.000 C 
ATOM      9  C   UNL     1      40.883  11.100  10.074  0.00  0.00    +0.000 A 
ATOM     10  C   UNL     1      41.696  11.990   9.378  0.00  0.00    +0.000 A 
ATOM     11  C   UNL     1      43.056  11.731   9.332  0.00  0.00    +0.000 A 
ATOM     12  N   UNL     1      43.653  10.665   9.922  0.00  0.00    +0.000 NA
ATOM     13  C   UNL     1      42.865   9.796  10.586  0.00  0.00    +0.000 A 
ATOM     14  N   UNL     1      43.403   8.683  11.249  0.00  0.00    +0.000 N 
ATOM     15  C   UNL     1      41.485   9.991  10.676  0.00  0.00    +0.000 A 
ATOM     16  H   UNL     1      42.917   7.846  10.944  0.00  0.00    +0.000 HD
ENDBRANCH   7  14
ENDBRANCH   1   7
BRANCH   4  17
ATOM     17  C   UNL     1      46.451   3.811  14.282  0.00  0.00    +0.000 C 
BRANCH  17  18
ATOM     18  N   UNL     1      47.537   4.113  15.182  0.00  0.00    +0.000 N 
ATOM     19  C   UNL     1      47.410   3.964  16.542  0.00  0.00    +0.000 C 
ATOM     20  O   UNL     1      46.379   3.550  17.065  0.00  0.00    +0.000 OA
ATOM     21  H   UNL     1      48.276   4.706  14.822  0.00  0.00    +0.000 HD
BRANCH  19  22
ATOM     22  C   UNL     1      48.605   4.270  17.341  0.00  0.00    +0.000 A 
ATOM     23  C   UNL     1      48.663   5.438  18.088  0.00  0.00    +0.000 A 
ATOM     24  S   UNL     1      50.103   5.602  18.990  0.00  0.00    +0.000 S 
ATOM     25  C   UNL     1      50.722   4.146  18.368  0.00  0.00    +0.000 A 
ATOM     26  N   UNL     1      51.963   3.705  18.715  0.00  0.00    +0.000 NA
ATOM     27  C   UNL     1      52.317   2.601  18.150  0.00  0.00    +0.000 A 
ATOM     28  N   UNL     1      51.535   1.892  17.271  0.00  0.00    +0.000 N 
ATOM     29  C   UNL     1      50.265   2.277  16.923  0.00  0.00    +0.000 A 
ATOM     30  O   UNL     1      49.573   1.585  16.184  0.00  0.00    +0.000 OA
ATOM     31  C   UNL     1      49.833   3.529  17.511  0.00  0.00    +0.000 A 
ATOM     32  H   UNL     1      51.864   1.023  16.876  0.00  0.00    +0.000 HD
ENDBRANCH  19  22
ENDBRANCH  17  18
ENDBRANCH   4  17
TORSDOF 5
ENDMDL
