MODEL 1
REMARK VINA RESULT:    -8.238      0.000      0.000
REMARK INTER + INTRA:         -11.944
REMARK INTER:                 -10.887
REMARK INTRA:                  -1.057
REMARK UNBOUND:                -1.057
REMARK  Name = 
REMARK  6 active torsions:
REMARK  status: ('A' for Active; 'I' for Inactive)
REMARK    1  A    between atoms: N_1  and  S_2
REMARK    2  A    between atoms: S_2  and  C_5
REMARK    3  A    between atoms: C_9  and  C_10
REMARK    4  A    between atoms: C_10  and  C_11
REMARK    5  A    between atoms: C_11  and  C_12
REMARK    6  A    between atoms: C_16  and  C_17
REMARK                            x       y       z     vdW  Elec       q    Type
REMARK                         _______ _______ _______ _____ _____    ______ ____
ROOT
ATOM      1  C   UNL     1      46.495   6.907  11.851  0.00  0.00    +0.000 C 
ENDROOT
BRANCH   1   6
ATOM      2  C   UNL     1      47.760   5.379  15.089  0.00  0.00    +0.000 A 
ATOM      3  C   UNL     1      48.526   6.418  15.623  0.00  0.00    +0.000 A 
ATOM      4  C   UNL     1      48.624   7.623  14.928  0.00  0.00    +0.000 A 
ATOM      5  C   UNL     1      47.970   7.782  13.705  0.00  0.00    +0.000 A 
ATOM      6  C   UNL     1      47.207   6.737  13.166  0.00  0.00    +0.000 A 
ATOM      7  C   UNL     1      47.109   5.530  13.863  0.00  0.00    +0.000 A 
BRANCH   2   8
ATOM      8  S   UNL     1      47.645   3.833  15.932  0.00  0.00    +0.000 S 
ATOM      9  O   UNL     1      47.749   2.756  14.977  0.00  0.00    +0.000 OA
ATOM     10  O   UNL     1      46.577   3.899  16.909  0.00  0.00    +0.000 OA
BRANCH   8  11
ATOM     11  N   UNL     1      49.069   3.810  16.818  0.00  0.00    +0.000 NA
ATOM     12  H   UNL     1      49.664   3.052  16.489  0.00  0.00    +0.000 HD
ATOM     13  H   UNL     1      48.861   3.770  17.817  0.00  0.00    +0.000 HD
ENDBRANCH   8  11
ENDBRANCH   2   8
ENDBRANCH   1   6
BRANCH   1  14
ATOM     14  C   UNL     1      44.997   6.568  11.933  0.00  0.00    +0.000 C 
BRANCH  14  15
ATOM     15  C   UNL     1      44.645   5.183  11.429  0.00  0.00    +0.000 A 
ATOM     16  C   UNL     1      43.631   4.445  12.048  0.00  0.00    +0.000 A 
ATOM     17  C   UNL     1      43.302   3.172  11.580  0.00  0.00    +0.000 A 
ATOM     18  C   UNL     1      43.970   2.627  10.478  0.00  0.00    +0.000 A 
ATOM     19  C   UNL     1      44.981   3.342   9.819  0.00  0.00    +0.000 A 
ATOM     20  C   UNL     1      45.321   4.601  10.347  0.00  0.00    +0.000 A 
BRANCH  19  21
ATOM     21  C   UNL     1      45.607   2.882   8.556  0.00  0.00    +0.000 A 
ATOM     22  C   UNL     1      45.900   3.790   7.523  0.00  0.00    +0.000 A 
ATOM     23  C   UNL     1      46.642   3.404   6.402  0.00  0.00    +0.000 A 
ATOM     24  C   UNL     1      47.112   2.099   6.291  0.00  0.00    +0.000 A 
ATOM     25  C   UNL     1      46.809   1.170   7.280  0.00  0.00    +0.000 A 
ATOM     26  C   UNL     1      46.050   1.555   8.388  0.00  0.00    +0.000 A 
ENDBRANCH  19  21
ENDBRANCH  14  15
ENDBRANCH   1  14
TORSDOF 6
ENDMDL
MODEL 2
REMARK VINA RESULT:    -7.777      1.995      2.241
REMARK INTER + INTRA:         -11.334
REMARK INTER:                 -10.239
REMARK INTRA:                  -1.095
REMARK UNBOUND:                -1.057
REMARK  Name = 
REMARK  6 active torsions:
REMARK  status: ('A' for Active; 'I' for Inactive)
REMARK    1  A    between atoms: N_1  and  S_2
REMARK    2  A    between atoms: S_2  and  C_5
REMARK    3  A    between atoms: C_9  and  C_10
REMARK    4  A    between atoms: C_10  and  C_11
REMARK    5  A    between atoms: C_11  and  C_12
REMARK    6  A    between atoms: C_16  and  C_17
REMARK                            x       y       z     vdW  Elec       q    Type
REMARK                         _______ _______ _______ _____ _____    ______ ____
ROOT
ATOM      1  C   UNL     1      45.385   7.096  12.692  0.00  0.00    +0.000 C 
ENDROOT
BRANCH   1   6
ATOM      2  C   UNL     1      48.884   7.293  14.153  0.00  0.00    +0.000 A 
ATOM      3  C   UNL     1      49.665   7.507  13.015  0.00  0.00    +0.000 A 
ATOM      4  C   UNL     1      49.046   7.594  11.767  0.00  0.00    +0.000 A 
ATOM      5  C   UNL     1      47.662   7.459  11.661  0.00  0.00    +0.000 A 
ATOM      6  C   UNL     1      46.879   7.237  12.802  0.00  0.00    +0.000 A 
ATOM      7  C   UNL     1      47.499   7.149  14.052  0.00  0.00    +0.000 A 
BRANCH   2   8
ATOM      8  S   UNL     1      49.643   7.147  15.740  0.00  0.00    +0.000 S 
ATOM      9  O   UNL     1      50.658   8.163  15.882  0.00  0.00    +0.000 OA
ATOM     10  O   UNL     1      49.902   5.750  16.019  0.00  0.00    +0.000 OA
BRANCH   8  11
ATOM     11  N   UNL     1      48.393   7.590  16.768  0.00  0.00    +0.000 NA
ATOM     12  H   UNL     1      47.646   8.026  16.229  0.00  0.00    +0.000 HD
ATOM     13  H   UNL     1      48.751   8.172  17.526  0.00  0.00    +0.000 HD
ENDBRANCH   8  11
ENDBRANCH   2   8
ENDBRANCH   1   6
BRANCH   1  14
ATOM     14  C   UNL     1      44.911   6.857  11.248  0.00  0.00    +0.000 C 
BRANCH  14  15
ATOM     15  C   UNL     1      44.637   5.403  10.916  0.00  0.00    +0.000 A 
ATOM     16  C   UNL     1      43.663   4.692  11.623  0.00  0.00    +0.000 A 
ATOM     17  C   UNL     1      43.406   3.356  11.313  0.00  0.00    +0.000 A 
ATOM     18  C   UNL     1      44.106   2.719  10.284  0.00  0.00    +0.000 A 
ATOM     19  C   UNL     1      45.079   3.402   9.540  0.00  0.00    +0.000 A 
ATOM     20  C   UNL     1      45.348   4.733   9.910  0.00  0.00    +0.000 A 
BRANCH  19  21
ATOM     21  C   UNL     1      45.735   2.828   8.340  0.00  0.00    +0.000 A 
ATOM     22  C   UNL     1      46.070   3.641   7.243  0.00  0.00    +0.000 A 
ATOM     23  C   UNL     1      46.839   3.150   6.182  0.00  0.00    +0.000 A 
ATOM     24  C   UNL     1      47.292   1.835   6.196  0.00  0.00    +0.000 A 
ATOM     25  C   UNL     1      46.946   0.998   7.251  0.00  0.00    +0.000 A 
ATOM     26  C   UNL     1      46.162   1.486   8.299  0.00  0.00    +0.000 A 
ENDBRANCH  19  21
ENDBRANCH  14  15
ENDBRANCH   1  14
TORSDOF 6
ENDMDL
MODEL 3
REMARK VINA RESULT:    -7.663      4.027      4.294
REMARK INTER + INTRA:         -11.184
REMARK INTER:                 -10.114
REMARK INTRA:                  -1.070
REMARK UNBOUND:                -1.057
REMARK  Name = 
REMARK  6 active torsions:
REMARK  status: ('A' for Active; 'I' for Inactive)
REMARK    1  A    between atoms: N_1  and  S_2
REMARK    2  A    between atoms: S_2  and  C_5
REMARK    3  A    between atoms: C_9  and  C_10
REMARK    4  A    between atoms: C_10  and  C_11
REMARK    5  A    between atoms: C_11  and  C_12
REMARK    6  A    between atoms: C_16  and  C_17
REMARK                            x       y       z     vdW  Elec       q    Type
REMARK                         _______ _______ _______ _____ _____    ______ ____
ROOT
ATOM      1  C   UNL     1      45.101   7.105  12.670  0.00  0.00    +0.000 C 
ENDROOT
BRANCH   1   6
ATOM      2  C   UNL     1      47.769   9.707  11.940  0.00  0.00    +0.000 A 
ATOM      3  C   UNL     1      48.885   8.914  11.667  0.00  0.00    +0.000 A 
ATOM      4  C   UNL     1      48.765   7.524  11.714  0.00  0.00    +0.000 A 
ATOM      5  C   UNL     1      47.542   6.938  12.041  0.00  0.00    +0.000 A 
ATOM      6  C   UNL     1      46.424   7.735  12.322  0.00  0.00    +0.000 A 
ATOM      7  C   UNL     1      46.544   9.126  12.275  0.00  0.00    +0.000 A 
BRANCH   2   8
ATOM      8  S   UNL     1      47.901  11.467  11.919  0.00  0.00    +0.000 S 
ATOM      9  O   UNL     1      48.135  11.915  10.567  0.00  0.00    +0.000 OA
ATOM     10  O   UNL     1      48.724  11.898  13.030  0.00  0.00    +0.000 OA
BRANCH   8  11
ATOM     11  N   UNL     1      46.338  11.940  12.303  0.00  0.00    +0.000 NA
ATOM     12  H   UNL     1      45.721  11.130  12.281  0.00  0.00    +0.000 HD
ATOM     13  H   UNL     1      46.041  12.703  11.693  0.00  0.00    +0.000 HD
ENDBRANCH   8  11
ENDBRANCH   2   8
ENDBRANCH   1   6
BRANCH   1  14
ATOM     14  C   UNL     1      44.262   6.753  11.430  0.00  0.00    +0.000 C 
BRANCH  14  15
ATOM     15  C   UNL     1      44.211   5.271  11.114  0.00  0.00    +0.000 A 
ATOM     16  C   UNL     1      43.394   4.419  11.864  0.00  0.00    +0.000 A 
ATOM     17  C   UNL     1      43.342   3.056  11.569  0.00  0.00    +0.000 A 
ATOM     18  C   UNL     1      44.093   2.530  10.512  0.00  0.00    +0.000 A 
ATOM     19  C   UNL     1      44.912   3.354   9.726  0.00  0.00    +0.000 A 
ATOM     20  C   UNL     1      44.978   4.714  10.081  0.00  0.00    +0.000 A 
BRANCH  19  21
ATOM     21  C   UNL     1      45.601   2.881   8.501  0.00  0.00    +0.000 A 
ATOM     22  C   UNL     1      45.930   3.776   7.467  0.00  0.00    +0.000 A 
ATOM     23  C   UNL     1      46.727   3.379   6.388  0.00  0.00    +0.000 A 
ATOM     24  C   UNL     1      47.216   2.079   6.321  0.00  0.00    +0.000 A 
ATOM     25  C   UNL     1      46.879   1.163   7.310  0.00  0.00    +0.000 A 
ATOM     26  C   UNL     1      46.065   1.557   8.376  0.00  0.00    +0.000 A 
ENDBRANCH  19  21
ENDBRANCH  14  15
ENDBRANCH   1  14
TORSDOF 6
ENDMDL
MODEL 4
REMARK VINA RESULT:    -7.504      4.345      4.730
REMARK INTER + INTRA:         -10.973
REMARK INTER:                  -9.921
REMARK INTRA:                  -1.052
REMARK UNBOUND:                -1.057
REMARK  Name = 
REMARK  6 active torsions:
REMARK  status: ('A' for Active; 'I' for Inactive)
REMARK    1  A    between atoms: N_1  and  S_2
REMARK    2  A    between atoms: S_2  and  C_5
REMARK    3  A    between atoms: C_9  and  C_10
REMARK    4  A    between atoms: C_10  and  C_11
REMARK    5  A    between atoms: C_11  and  C_12
REMARK    6  A    between atoms: C_16  and  C_17
REMARK                            x       y       z     vdW  Elec       q    Type
REMARK                         _______ _______ _______ _____ _____    ______ ____
ROOT
ATOM      1  C   UNL     1      46.282   6.484  12.546  0.00  0.00    +0.000 C 
ENDROOT
BRANCH   1   6
ATOM      2  C   UNL     1      44.840   9.817  11.435  0.00  0.00    +0.000 A 
ATOM      3  C   UNL     1      45.948  10.663  11.533  0.00  0.00    +0.000 A 
ATOM      4  C   UNL     1      47.171  10.141  11.955  0.00  0.00    +0.000 A 
ATOM      5  C   UNL     1      47.280   8.790  12.286  0.00  0.00    +0.000 A 
ATOM      6  C   UNL     1      46.166   7.944  12.195  0.00  0.00    +0.000 A 
ATOM      7  C   UNL     1      44.941   8.466  11.772  0.00  0.00    +0.000 A 
BRANCH   2   8
ATOM      8  S   UNL     1      43.273  10.456  10.934  0.00  0.00    +0.000 S 
ATOM      9  O   UNL     1      43.383  11.012   9.607  0.00  0.00    +0.000 OA
ATOM     10  O   UNL     1      42.683  11.192  12.033  0.00  0.00    +0.000 OA
BRANCH   8  11
ATOM     11  N   UNL     1      42.357   9.059  10.781  0.00  0.00    +0.000 NA
ATOM     12  H   UNL     1      41.377   9.272  10.962  0.00  0.00    +0.000 HD
ATOM     13  H   UNL     1      42.738   8.322  11.376  0.00  0.00    +0.000 HD
ENDBRANCH   8  11
ENDBRANCH   2   8
ENDBRANCH   1   6
BRANCH   1  14
ATOM     14  C   UNL     1      44.937   5.857  12.950  0.00  0.00    +0.000 C 
BRANCH  14  15
ATOM     15  C   UNL     1      44.578   4.604  12.175  0.00  0.00    +0.000 A 
ATOM     16  C   UNL     1      43.560   3.761  12.633  0.00  0.00    +0.000 A 
ATOM     17  C   UNL     1      43.225   2.612  11.916  0.00  0.00    +0.000 A 
ATOM     18  C   UNL     1      43.891   2.299  10.726  0.00  0.00    +0.000 A 
ATOM     19  C   UNL     1      44.905   3.127  10.225  0.00  0.00    +0.000 A 
ATOM     20  C   UNL     1      45.251   4.251  10.997  0.00  0.00    +0.000 A 
BRANCH  19  21
ATOM     21  C   UNL     1      45.530   2.930   8.895  0.00  0.00    +0.000 A 
ATOM     22  C   UNL     1      45.806   4.025   8.058  0.00  0.00    +0.000 A 
ATOM     23  C   UNL     1      46.546   3.874   6.881  0.00  0.00    +0.000 A 
ATOM     24  C   UNL     1      47.031   2.622   6.516  0.00  0.00    +0.000 A 
ATOM     25  C   UNL     1      46.745   1.514   7.306  0.00  0.00    +0.000 A 
ATOM     26  C   UNL     1      45.987   1.667   8.470  0.00  0.00    +0.000 A 
ENDBRANCH  19  21
ENDBRANCH  14  15
ENDBRANCH   1  14
TORSDOF 6
ENDMDL
MODEL 5
REMARK VINA RESULT:    -7.360      1.592      3.452
REMARK INTER + INTRA:         -10.783
REMARK INTER:                  -9.696
REMARK INTRA:                  -1.087
REMARK UNBOUND:                -1.057
REMARK  Name = 
REMARK  6 active torsions:
REMARK  status: ('A' for Active; 'I' for Inactive)
REMARK    1  A    between atoms: N_1  and  S_2
REMARK    2  A    between atoms: S_2  and  C_5
REMARK    3  A    between atoms: C_9  and  C_10
REMARK    4  A    between atoms: C_10  and  C_11
REMARK    5  A    between atoms: C_11  and  C_12
REMARK    6  A    between atoms: C_16  and  C_17
REMARK                            x       y       z     vdW  Elec       q    Type
REMARK                         _______ _______ _______ _____ _____    ______ ____
ROOT
ATOM      1  C   UNL     1      49.118   8.028  14.604  0.00  0.00    +0.000 C 
ENDROOT
BRANCH   1   6
ATOM      2  C   UNL     1      48.204   5.047  16.771  0.00  0.00    +0.000 A 
ATOM      3  C   UNL     1      48.224   5.599  18.054  0.00  0.00    +0.000 A 
ATOM      4  C   UNL     1      48.529   6.952  18.211  0.00  0.00    +0.000 A 
ATOM      5  C   UNL     1      48.821   7.738  17.096  0.00  0.00    +0.000 A 
ATOM      6  C   UNL     1      48.809   7.181  15.810  0.00  0.00    +0.000 A 
ATOM      7  C   UNL     1      48.503   5.826  15.652  0.00  0.00    +0.000 A 
BRANCH   2   8
ATOM      8  S   UNL     1      47.852   3.332  16.546  0.00  0.00    +0.000 S 
ATOM      9  O   UNL     1      46.668   2.982  17.294  0.00  0.00    +0.000 OA
ATOM     10  O   UNL     1      49.082   2.574  16.646  0.00  0.00    +0.000 OA
BRANCH   8  11
ATOM     11  N   UNL     1      47.414   3.274  14.927  0.00  0.00    +0.000 NA
ATOM     12  H   UNL     1      46.538   2.762  14.829  0.00  0.00    +0.000 HD
ATOM     13  H   UNL     1      48.180   2.894  14.369  0.00  0.00    +0.000 HD
ENDBRANCH   8  11
ENDBRANCH   2   8
ENDBRANCH   1   6
BRANCH   1  14
ATOM     14  C   UNL     1      48.941   7.269  13.278  0.00  0.00    +0.000 C 
BRANCH  14  15
ATOM     15  C   UNL     1      47.531   7.308  12.723  0.00  0.00    +0.000 A 
ATOM     16  C   UNL     1      46.717   8.423  12.947  0.00  0.00    +0.000 A 
ATOM     17  C   UNL     1      45.421   8.462  12.431  0.00  0.00    +0.000 A 
ATOM     18  C   UNL     1      44.928   7.395  11.672  0.00  0.00    +0.000 A 
ATOM     19  C   UNL     1      45.718   6.267  11.411  0.00  0.00    +0.000 A 
ATOM     20  C   UNL     1      47.001   6.239  11.986  0.00  0.00    +0.000 A 
BRANCH  19  21
ATOM     21  C   UNL     1      45.306   5.185  10.484  0.00  0.00    +0.000 A 
ATOM     22  C   UNL     1      45.737   5.178   9.145  0.00  0.00    +0.000 A 
ATOM     23  C   UNL     1      45.499   4.082   8.309  0.00  0.00    +0.000 A 
ATOM     24  C   UNL     1      44.828   2.965   8.795  0.00  0.00    +0.000 A 
ATOM     25  C   UNL     1      44.360   2.957  10.104  0.00  0.00    +0.000 A 
ATOM     26  C   UNL     1      44.582   4.062  10.930  0.00  0.00    +0.000 A 
ENDBRANCH  19  21
ENDBRANCH  14  15
ENDBRANCH   1  14
TORSDOF 6
ENDMDL
MODEL 6
REMARK VINA RESULT:    -7.011      3.892      4.381
REMARK INTER + INTRA:         -10.322
REMARK INTER:                  -9.380
REMARK INTRA:                  -0.942
REMARK UNBOUND:                -1.057
REMARK  Name = 
REMARK  6 active torsions:
REMARK  status: ('A' for Active; 'I' for Inactive)
REMARK    1  A    between atoms: N_1  and  S_2
REMARK    2  A    between atoms: S_2  and  C_5
REMARK    3  A    between atoms: C_9  and  C_10
REMARK    4  A    between atoms: C_10  and  C_11
REMARK    5  A    between atoms: C_11  and  C_12
REMARK    6  A    between atoms: C_16  and  C_17
REMARK                            x       y       z     vdW  Elec       q    Type
REMARK                         _______ _______ _______ _____ _____    ______ ____
ROOT
ATOM      1  C   UNL     1      47.539   7.058  12.226  0.00  0.00    +0.000 C 
ENDROOT
BRANCH   1   6
ATOM      2  C   UNL     1      50.720   8.854  11.189  0.00  0.00    +0.000 A 
ATOM      3  C   UNL     1      50.292  10.181  11.103  0.00  0.00    +0.000 A 
ATOM      4  C   UNL     1      48.963  10.491  11.392  0.00  0.00    +0.000 A 
ATOM      5  C   UNL     1      48.070   9.481  11.753  0.00  0.00    +0.000 A 
ATOM      6  C   UNL     1      48.498   8.149  11.831  0.00  0.00    +0.000 A 
ATOM      7  C   UNL     1      49.830   7.838  11.542  0.00  0.00    +0.000 A 
BRANCH   2   8
ATOM      8  S   UNL     1      52.387   8.428  10.799  0.00  0.00    +0.000 S 
ATOM      9  O   UNL     1      53.183   9.630  10.718  0.00  0.00    +0.000 OA
ATOM     10  O   UNL     1      52.394   7.425   9.754  0.00  0.00    +0.000 OA
BRANCH   8  11
ATOM     11  N   UNL     1      52.882   7.634  12.191  0.00  0.00    +0.000 NA
ATOM     12  H   UNL     1      52.600   8.173  13.009  0.00  0.00    +0.000 HD
ATOM     13  H   UNL     1      53.883   7.439  12.148  0.00  0.00    +0.000 HD
ENDBRANCH   8  11
ENDBRANCH   2   8
ENDBRANCH   1   6
BRANCH   1  14
ATOM     14  C   UNL     1      46.065   7.465  12.054  0.00  0.00    +0.000 C 
BRANCH  14  15
ATOM     15  C   UNL     1      45.188   6.384  11.455  0.00  0.00    +0.000 A 
ATOM     16  C   UNL     1      43.829   6.319  11.781  0.00  0.00    +0.000 A 
ATOM     17  C   UNL     1      43.020   5.328  11.225  0.00  0.00    +0.000 A 
ATOM     18  C   UNL     1      43.553   4.400  10.324  0.00  0.00    +0.000 A 
ATOM     19  C   UNL     1      44.907   4.441   9.959  0.00  0.00    +0.000 A 
ATOM     20  C   UNL     1      45.704   5.422  10.575  0.00  0.00    +0.000 A 
BRANCH  19  21
ATOM     21  C   UNL     1      45.486   3.588   8.893  0.00  0.00    +0.000 A 
ATOM     22  C   UNL     1      46.189   4.156   7.816  0.00  0.00    +0.000 A 
ATOM     23  C   UNL     1      46.883   3.360   6.899  0.00  0.00    +0.000 A 
ATOM     24  C   UNL     1      46.893   1.977   7.041  0.00  0.00    +0.000 A 
ATOM     25  C   UNL     1      46.179   1.384   8.076  0.00  0.00    +0.000 A 
ATOM     26  C   UNL     1      45.469   2.182   8.978  0.00  0.00    +0.000 A 
ENDBRANCH  19  21
ENDBRANCH  14  15
ENDBRANCH   1  14
TORSDOF 6
ENDMDL
MODEL 7
REMARK VINA RESULT:    -6.772      3.038      3.235
REMARK INTER + INTRA:         -10.006
REMARK INTER:                  -9.012
REMARK INTRA:                  -0.994
REMARK UNBOUND:                -1.057
REMARK  Name = 
REMARK  6 active torsions:
REMARK  status: ('A' for Active; 'I' for Inactive)
REMARK    1  A    between atoms: N_1  and  S_2
REMARK    2  A    between atoms: S_2  and  C_5
REMARK    3  A    between atoms: C_9  and  C_10
REMARK    4  A    between atoms: C_10  and  C_11
REMARK    5  A    between atoms: C_11  and  C_12
REMARK    6  A    between atoms: C_16  and  C_17
REMARK                            x       y       z     vdW  Elec       q    Type
REMARK                         _______ _______ _______ _____ _____    ______ ____
ROOT
ATOM      1  C   UNL     1      47.434   7.370  11.676  0.00  0.00    +0.000 C 
ENDROOT
BRANCH   1   6
ATOM      2  C   UNL     1      50.180   7.696  14.278  0.00  0.00    +0.000 A 
ATOM      3  C   UNL     1      49.666   6.950  15.341  0.00  0.00    +0.000 A 
ATOM      4  C   UNL     1      48.423   6.332  15.205  0.00  0.00    +0.000 A 
ATOM      5  C   UNL     1      47.698   6.469  14.020  0.00  0.00    +0.000 A 
ATOM      6  C   UNL     1      48.210   7.224  12.957  0.00  0.00    +0.000 A 
ATOM      7  C   UNL     1      49.456   7.843  13.093  0.00  0.00    +0.000 A 
BRANCH   2   8
ATOM      8  S   UNL     1      51.735   8.515  14.434  0.00  0.00    +0.000 S 
ATOM      9  O   UNL     1      52.489   7.913  15.508  0.00  0.00    +0.000 OA
ATOM     10  O   UNL     1      51.535   9.946  14.338  0.00  0.00    +0.000 OA
BRANCH   8  11
ATOM     11  N   UNL     1      52.510   8.069  13.014  0.00  0.00    +0.000 NA
ATOM     12  H   UNL     1      52.401   7.067  12.866  0.00  0.00    +0.000 HD
ATOM     13  H   UNL     1      53.481   8.383  13.031  0.00  0.00    +0.000 HD
ENDBRANCH   8  11
ENDBRANCH   2   8
ENDBRANCH   1   6
BRANCH   1  14
ATOM     14  C   UNL     1      45.919   7.504  11.905  0.00  0.00    +0.000 C 
BRANCH  14  15
ATOM     15  C   UNL     1      45.106   6.332  11.390  0.00  0.00    +0.000 A 
ATOM     16  C   UNL     1      43.786   6.150  11.814  0.00  0.00    +0.000 A 
ATOM     17  C   UNL     1      43.036   5.076  11.334  0.00  0.00    +0.000 A 
ATOM     18  C   UNL     1      43.589   4.179  10.414  0.00  0.00    +0.000 A 
ATOM     19  C   UNL     1      44.904   4.336   9.952  0.00  0.00    +0.000 A 
ATOM     20  C   UNL     1      45.647   5.401  10.492  0.00  0.00    +0.000 A 
BRANCH  19  21
ATOM     21  C   UNL     1      45.484   3.515   8.862  0.00  0.00    +0.000 A 
ATOM     22  C   UNL     1      46.138   4.118   7.773  0.00  0.00    +0.000 A 
ATOM     23  C   UNL     1      46.836   3.356   6.830  0.00  0.00    +0.000 A 
ATOM     24  C   UNL     1      46.898   1.972   6.958  0.00  0.00    +0.000 A 
ATOM     25  C   UNL     1      46.231   1.344   8.004  0.00  0.00    +0.000 A 
ATOM     26  C   UNL     1      45.518   2.108   8.932  0.00  0.00    +0.000 A 
ENDBRANCH  19  21
ENDBRANCH  14  15
ENDBRANCH   1  14
TORSDOF 6
ENDMDL
MODEL 8
REMARK VINA RESULT:    -6.724      1.829      2.243
REMARK INTER + INTRA:          -9.943
REMARK INTER:                  -9.165
REMARK INTRA:                  -0.777
REMARK UNBOUND:                -1.057
REMARK  Name = 
REMARK  6 active torsions:
REMARK  status: ('A' for Active; 'I' for Inactive)
REMARK    1  A    between atoms: N_1  and  S_2
REMARK    2  A    between atoms: S_2  and  C_5
REMARK    3  A    between atoms: C_9  and  C_10
REMARK    4  A    between atoms: C_10  and  C_11
REMARK    5  A    between atoms: C_11  and  C_12
REMARK    6  A    between atoms: C_16  and  C_17
REMARK                            x       y       z     vdW  Elec       q    Type
REMARK                         _______ _______ _______ _____ _____    ______ ____
ROOT
ATOM      1  C   UNL     1      47.058   4.646  13.846  0.00  0.00    +0.000 C 
ENDROOT
BRANCH   1   6
ATOM      2  C   UNL     1      48.578   5.331  17.258  0.00  0.00    +0.000 A 
ATOM      3  C   UNL     1      49.191   6.571  17.062  0.00  0.00    +0.000 A 
ATOM      4  C   UNL     1      49.102   7.188  15.814  0.00  0.00    +0.000 A 
ATOM      5  C   UNL     1      48.414   6.566  14.772  0.00  0.00    +0.000 A 
ATOM      6  C   UNL     1      47.805   5.318  14.967  0.00  0.00    +0.000 A 
ATOM      7  C   UNL     1      47.895   4.699  16.217  0.00  0.00    +0.000 A 
BRANCH   2   8
ATOM      8  S   UNL     1      48.702   4.512  18.816  0.00  0.00    +0.000 S 
ATOM      9  O   UNL     1      49.909   4.935  19.486  0.00  0.00    +0.000 OA
ATOM     10  O   UNL     1      48.358   3.115  18.652  0.00  0.00    +0.000 OA
BRANCH   8  11
ATOM     11  N   UNL     1      47.431   5.194  19.672  0.00  0.00    +0.000 NA
ATOM     12  H   UNL     1      47.757   5.485  20.593  0.00  0.00    +0.000 HD
ATOM     13  H   UNL     1      46.639   4.551  19.698  0.00  0.00    +0.000 HD
ENDBRANCH   8  11
ENDBRANCH   2   8
ENDBRANCH   1   6
BRANCH   1  14
ATOM     14  C   UNL     1      45.531   4.720  14.016  0.00  0.00    +0.000 C 
BRANCH  14  15
ATOM     15  C   UNL     1      44.757   4.676  12.713  0.00  0.00    +0.000 A 
ATOM     16  C   UNL     1      43.520   5.319  12.607  0.00  0.00    +0.000 A 
ATOM     17  C   UNL     1      42.812   5.285  11.406  0.00  0.00    +0.000 A 
ATOM     18  C   UNL     1      43.337   4.623  10.291  0.00  0.00    +0.000 A 
ATOM     19  C   UNL     1      44.581   3.980  10.352  0.00  0.00    +0.000 A 
ATOM     20  C   UNL     1      45.246   3.992  11.591  0.00  0.00    +0.000 A 
BRANCH  19  21
ATOM     21  C   UNL     1      45.255   3.403   9.163  0.00  0.00    +0.000 A 
ATOM     22  C   UNL     1      45.840   4.234   8.191  0.00  0.00    +0.000 A 
ATOM     23  C   UNL     1      46.623   3.707   7.159  0.00  0.00    +0.000 A 
ATOM     24  C   UNL     1      46.843   2.335   7.079  0.00  0.00    +0.000 A 
ATOM     25  C   UNL     1      46.250   1.486   8.005  0.00  0.00    +0.000 A 
ATOM     26  C   UNL     1      45.451   2.015   9.023  0.00  0.00    +0.000 A 
ENDBRANCH  19  21
ENDBRANCH  14  15
ENDBRANCH   1  14
TORSDOF 6
ENDMDL
MODEL 9
REMARK VINA RESULT:    -6.609      4.039      7.618
REMARK INTER + INTRA:          -9.791
REMARK INTER:                  -8.614
REMARK INTRA:                  -1.176
REMARK UNBOUND:                -1.057
REMARK  Name = 
REMARK  6 active torsions:
REMARK  status: ('A' for Active; 'I' for Inactive)
REMARK    1  A    between atoms: N_1  and  S_2
REMARK    2  A    between atoms: S_2  and  C_5
REMARK    3  A    between atoms: C_9  and  C_10
REMARK    4  A    between atoms: C_10  and  C_11
REMARK    5  A    between atoms: C_11  and  C_12
REMARK    6  A    between atoms: C_16  and  C_17
REMARK                            x       y       z     vdW  Elec       q    Type
REMARK                         _______ _______ _______ _____ _____    ______ ____
ROOT
ATOM      1  C   UNL     1      46.235   7.923  12.321  0.00  0.00    +0.000 C 
ENDROOT
BRANCH   1   6
ATOM      2  C   UNL     1      45.340   4.646  10.623  0.00  0.00    +0.000 A 
ATOM      3  C   UNL     1      45.034   3.826  11.712  0.00  0.00    +0.000 A 
ATOM      4  C   UNL     1      45.113   4.347  13.004  0.00  0.00    +0.000 A 
ATOM      5  C   UNL     1      45.504   5.672  13.203  0.00  0.00    +0.000 A 
ATOM      6  C   UNL     1      45.818   6.491  12.110  0.00  0.00    +0.000 A 
ATOM      7  C   UNL     1      45.740   5.970  10.816  0.00  0.00    +0.000 A 
BRANCH   2   8
ATOM      8  S   UNL     1      45.280   4.005   8.980  0.00  0.00    +0.000 S 
ATOM      9  O   UNL     1      45.346   2.564   9.024  0.00  0.00    +0.000 OA
ATOM     10  O   UNL     1      46.146   4.792   8.127  0.00  0.00    +0.000 OA
BRANCH   8  11
ATOM     11  N   UNL     1      43.715   4.386   8.512  0.00  0.00    +0.000 NA
ATOM     12  H   UNL     1      43.086   3.628   8.775  0.00  0.00    +0.000 HD
ATOM     13  H   UNL     1      43.692   4.618   7.519  0.00  0.00    +0.000 HD
ENDBRANCH   8  11
ENDBRANCH   2   8
ENDBRANCH   1   6
BRANCH   1  14
ATOM     14  C   UNL     1      47.749   8.079  12.541  0.00  0.00    +0.000 C 
BRANCH  14  15
ATOM     15  C   UNL     1      48.176   8.019  13.995  0.00  0.00    +0.000 A 
ATOM     16  C   UNL     1      48.314   9.195  14.737  0.00  0.00    +0.000 A 
ATOM     17  C   UNL     1      48.699   9.139  16.077  0.00  0.00    +0.000 A 
ATOM     18  C   UNL     1      48.937   7.907  16.696  0.00  0.00    +0.000 A 
ATOM     19  C   UNL     1      48.793   6.704  15.990  0.00  0.00    +0.000 A 
ATOM     20  C   UNL     1      48.451   6.799  14.629  0.00  0.00    +0.000 A 
BRANCH  19  21
ATOM     21  C   UNL     1      48.875   5.371  16.635  0.00  0.00    +0.000 A 
ATOM     22  C   UNL     1      47.867   4.411  16.439  0.00  0.00    +0.000 A 
ATOM     23  C   UNL     1      48.012   3.098  16.898  0.00  0.00    +0.000 A 
ATOM     24  C   UNL     1      49.174   2.713  17.560  0.00  0.00    +0.000 A 
ATOM     25  C   UNL     1      50.174   3.649  17.799  0.00  0.00    +0.000 A 
ATOM     26  C   UNL     1      50.015   4.965  17.357  0.00  0.00    +0.000 A 
ENDBRANCH  19  21
ENDBRANCH  14  15
ENDBRANCH   1  14
TORSDOF 6
ENDMDL
