MODEL 1
REMARK VINA RESULT:    -8.675      0.000      0.000
REMARK INTER + INTRA:         -12.785
REMARK INTER:                 -11.718
REMARK INTRA:                  -1.066
REMARK UNBOUND:                -1.066
REMARK  Name = 
REMARK  6 active torsions:
REMARK  status: ('A' for Active; 'I' for Inactive)
REMARK    1  A    between atoms: C_2  and  C_19
REMARK    2  A    between atoms: N_3  and  C_4
REMARK    3  A    between atoms: C_4  and  C_5
REMARK    4  A    between atoms: C_8  and  O_9
REMARK    5  A    between atoms: O_9  and  C_10
REMARK    6  A    between atoms: C_10  and  C_11
REMARK                            x       y       z     vdW  Elec       q    Type
REMARK                         _______ _______ _______ _____ _____    ______ ____
ROOT
ATOM      1  O   UNL     1      48.869   6.440  13.101  0.00  0.00    +0.000 OA
ATOM      2  C   UNL     1      48.219   6.701  14.124  0.00  0.00    +0.000 C 
ATOM      3  N   UNL     1      46.990   7.299  14.087  0.00  0.00    +0.000 N 
ATOM      4  H   UNL     1      46.522   7.544  14.955  0.00  0.00    +0.000 HD
ENDROOT
BRANCH   2   5
ATOM      5  C   UNL     1      48.701   6.315  15.451  0.00  0.00    +0.000 A 
ATOM      6  C   UNL     1      49.649   7.049  16.148  0.00  0.00    +0.000 A 
ATOM      7  S   UNL     1      50.063   6.352  17.656  0.00  0.00    +0.000 S 
ATOM      8  C   UNL     1      48.951   5.082  17.441  0.00  0.00    +0.000 A 
ATOM      9  N   UNL     1      48.801   4.101  18.372  0.00  0.00    +0.000 NA
ATOM     10  C   UNL     1      47.895   3.233  18.092  0.00  0.00    +0.000 A 
ATOM     11  N   UNL     1      47.107   3.253  16.961  0.00  0.00    +0.000 N 
ATOM     12  C   UNL     1      47.248   4.194  15.981  0.00  0.00    +0.000 A 
ATOM     13  O   UNL     1      46.583   4.115  14.939  0.00  0.00    +0.000 OA
ATOM     14  C   UNL     1      48.265   5.191  16.242  0.00  0.00    +0.000 A 
ATOM     15  H   UNL     1      46.417   2.541  16.796  0.00  0.00    +0.000 HD
ENDBRANCH   2   5
BRANCH   3  16
ATOM     16  C   UNL     1      46.396   7.752  12.858  0.00  0.00    +0.000 C 
BRANCH  16  17
ATOM     17  C   UNL     1      45.822   6.640  12.015  0.00  0.00    +0.000 A 
ATOM     18  C   UNL     1      46.247   6.463  10.693  0.00  0.00    +0.000 A 
ATOM     19  C   UNL     1      45.766   5.407   9.901  0.00  0.00    +0.000 A 
ATOM     20  C   UNL     1      44.862   4.489  10.453  0.00  0.00    +0.000 A 
ATOM     21  C   UNL     1      44.436   4.671  11.765  0.00  0.00    +0.000 A 
ATOM     22  C   UNL     1      44.879   5.741  12.534  0.00  0.00    +0.000 A 
BRANCH  20  23
ATOM     23  O   UNL     1      44.378   3.440   9.701  0.00  0.00    +0.000 OA
BRANCH  23  24
ATOM     24  C   UNL     1      44.573   3.613   8.275  0.00  0.00    +0.000 C 
BRANCH  24  25
ATOM     25  C   UNL     1      45.743   2.801   7.785  0.00  0.00    +0.000 A 
ATOM     26  C   UNL     1      45.927   1.476   8.178  0.00  0.00    +0.000 A 
ATOM     27  C   UNL     1      47.006   0.775   7.667  0.00  0.00    +0.000 A 
ATOM     28  N   UNL     1      47.896   1.291   6.794  0.00  0.00    +0.000 NA
ATOM     29  C   UNL     1      47.694   2.570   6.414  0.00  0.00    +0.000 A 
ATOM     30  C   UNL     1      46.643   3.352   6.865  0.00  0.00    +0.000 A 
ENDBRANCH  24  25
ENDBRANCH  23  24
ENDBRANCH  20  23
ENDBRANCH  16  17
ENDBRANCH   3  16
TORSDOF 6
ENDMDL
MODEL 2
REMARK VINA RESULT:    -8.004      2.010      2.578
REMARK INTER + INTRA:         -11.878
REMARK INTER:                 -10.919
REMARK INTRA:                  -0.959
REMARK UNBOUND:                -1.066
REMARK  Name = 
REMARK  6 active torsions:
REMARK  status: ('A' for Active; 'I' for Inactive)
REMARK    1  A    between atoms: C_2  and  C_19
REMARK    2  A    between atoms: N_3  and  C_4
REMARK    3  A    between atoms: C_4  and  C_5
REMARK    4  A    between atoms: C_8  and  O_9
REMARK    5  A    between atoms: O_9  and  C_10
REMARK    6  A    between atoms: C_10  and  C_11
REMARK                            x       y       z     vdW  Elec       q    Type
REMARK                         _______ _______ _______ _____ _____    ______ ____
ROOT
ATOM      1  O   UNL     1      49.688   6.609  15.359  0.00  0.00    +0.000 OA
ATOM      2  C   UNL     1      48.637   6.066  15.730  0.00  0.00    +0.000 C 
ATOM      3  N   UNL     1      47.538   5.957  14.924  0.00  0.00    +0.000 N 
ATOM      4  H   UNL     1      46.680   5.555  15.292  0.00  0.00    +0.000 HD
ENDROOT
BRANCH   2   5
ATOM      5  C   UNL     1      48.528   5.438  17.047  0.00  0.00    +0.000 A 
ATOM      6  C   UNL     1      48.711   4.078  17.247  0.00  0.00    +0.000 A 
ATOM      7  S   UNL     1      48.487   3.601  18.877  0.00  0.00    +0.000 S 
ATOM      8  C   UNL     1      48.190   5.205  19.365  0.00  0.00    +0.000 A 
ATOM      9  N   UNL     1      47.907   5.514  20.660  0.00  0.00    +0.000 NA
ATOM     10  C   UNL     1      47.747   6.769  20.886  0.00  0.00    +0.000 A 
ATOM     11  N   UNL     1      47.851   7.761  19.935  0.00  0.00    +0.000 N 
ATOM     12  C   UNL     1      48.093   7.496  18.617  0.00  0.00    +0.000 A 
ATOM     13  O   UNL     1      48.082   8.412  17.783  0.00  0.00    +0.000 OA
ATOM     14  C   UNL     1      48.271   6.093  18.305  0.00  0.00    +0.000 A 
ATOM     15  H   UNL     1      47.710   8.727  20.174  0.00  0.00    +0.000 HD
ENDBRANCH   2   5
BRANCH   3  16
ATOM     16  C   UNL     1      47.490   6.542  13.611  0.00  0.00    +0.000 C 
BRANCH  16  17
ATOM     17  C   UNL     1      46.636   5.773  12.634  0.00  0.00    +0.000 A 
ATOM     18  C   UNL     1      46.322   6.321  11.385  0.00  0.00    +0.000 A 
ATOM     19  C   UNL     1      45.568   5.608  10.437  0.00  0.00    +0.000 A 
ATOM     20  C   UNL     1      45.146   4.305  10.733  0.00  0.00    +0.000 A 
ATOM     21  C   UNL     1      45.453   3.765  11.978  0.00  0.00    +0.000 A 
ATOM     22  C   UNL     1      46.160   4.487  12.932  0.00  0.00    +0.000 A 
BRANCH  20  23
ATOM     23  O   UNL     1      44.411   3.580   9.821  0.00  0.00    +0.000 OA
BRANCH  23  24
ATOM     24  C   UNL     1      44.714   3.910   8.442  0.00  0.00    +0.000 C 
BRANCH  24  25
ATOM     25  C   UNL     1      45.783   3.005   7.888  0.00  0.00    +0.000 A 
ATOM     26  C   UNL     1      46.764   3.483   7.019  0.00  0.00    +0.000 A 
ATOM     27  C   UNL     1      47.736   2.607   6.569  0.00  0.00    +0.000 A 
ATOM     28  N   UNL     1      47.807   1.308   6.929  0.00  0.00    +0.000 NA
ATOM     29  C   UNL     1      46.858   0.868   7.781  0.00  0.00    +0.000 A 
ATOM     30  C   UNL     1      45.846   1.666   8.289  0.00  0.00    +0.000 A 
ENDBRANCH  24  25
ENDBRANCH  23  24
ENDBRANCH  20  23
ENDBRANCH  16  17
ENDBRANCH   3  16
TORSDOF 6
ENDMDL
MODEL 3
REMARK VINA RESULT:    -7.657      2.508      4.378
REMARK INTER + INTRA:         -11.409
REMARK INTER:                 -10.185
REMARK INTRA:                  -1.225
REMARK UNBOUND:                -1.066
REMARK  Name = 
REMARK  6 active torsions:
REMARK  status: ('A' for Active; 'I' for Inactive)
REMARK    1  A    between atoms: C_2  and  C_19
REMARK    2  A    between atoms: N_3  and  C_4
REMARK    3  A    between atoms: C_4  and  C_5
REMARK    4  A    between atoms: C_8  and  O_9
REMARK    5  A    between atoms: O_9  and  C_10
REMARK    6  A    between atoms: C_10  and  C_11
REMARK                            x       y       z     vdW  Elec       q    Type
REMARK                         _______ _______ _______ _____ _____    ______ ____
ROOT
ATOM      1  O   UNL     1      49.600   6.523  14.826  0.00  0.00    +0.000 OA
ATOM      2  C   UNL     1      48.657   7.269  14.523  0.00  0.00    +0.000 C 
ATOM      3  N   UNL     1      47.392   6.804  14.293  0.00  0.00    +0.000 N 
ATOM      4  H   UNL     1      46.665   7.448  13.991  0.00  0.00    +0.000 HD
ENDROOT
BRANCH   2   5
ATOM      5  C   UNL     1      48.825   8.721  14.461  0.00  0.00    +0.000 A 
ATOM      6  C   UNL     1      48.988   9.507  15.591  0.00  0.00    +0.000 A 
ATOM      7  S   UNL     1      49.123  11.177  15.236  0.00  0.00    +0.000 S 
ATOM      8  C   UNL     1      49.019  10.888  13.562  0.00  0.00    +0.000 A 
ATOM      9  N   UNL     1      49.055  11.907  12.660  0.00  0.00    +0.000 NA
ATOM     10  C   UNL     1      49.009  11.534  11.431  0.00  0.00    +0.000 A 
ATOM     11  N   UNL     1      48.936  10.224  11.008  0.00  0.00    +0.000 N 
ATOM     12  C   UNL     1      48.857   9.172  11.875  0.00  0.00    +0.000 A 
ATOM     13  O   UNL     1      48.696   8.020  11.447  0.00  0.00    +0.000 OA
ATOM     14  C   UNL     1      48.894   9.539  13.275  0.00  0.00    +0.000 A 
ATOM     15  H   UNL     1      48.897   9.996  10.029  0.00  0.00    +0.000 HD
ENDBRANCH   2   5
BRANCH   3  16
ATOM     16  C   UNL     1      47.078   5.401  14.300  0.00  0.00    +0.000 C 
BRANCH  16  17
ATOM     17  C   UNL     1      46.362   4.932  13.058  0.00  0.00    +0.000 A 
ATOM     18  C   UNL     1      45.918   3.609  12.954  0.00  0.00    +0.000 A 
ATOM     19  C   UNL     1      45.207   3.158  11.830  0.00  0.00    +0.000 A 
ATOM     20  C   UNL     1      44.906   4.059  10.799  0.00  0.00    +0.000 A 
ATOM     21  C   UNL     1      45.354   5.372  10.901  0.00  0.00    +0.000 A 
ATOM     22  C   UNL     1      46.096   5.806  11.993  0.00  0.00    +0.000 A 
BRANCH  20  23
ATOM     23  O   UNL     1      44.204   3.646   9.687  0.00  0.00    +0.000 OA
BRANCH  23  24
ATOM     24  C   UNL     1      44.796   4.079   8.436  0.00  0.00    +0.000 C 
BRANCH  24  25
ATOM     25  C   UNL     1      45.823   3.090   7.950  0.00  0.00    +0.000 A 
ATOM     26  C   UNL     1      45.776   1.747   8.323  0.00  0.00    +0.000 A 
ATOM     27  C   UNL     1      46.731   0.883   7.817  0.00  0.00    +0.000 A 
ATOM     28  N   UNL     1      47.711   1.255   6.966  0.00  0.00    +0.000 NA
ATOM     29  C   UNL     1      47.732   2.555   6.605  0.00  0.00    +0.000 A 
ATOM     30  C   UNL     1      46.819   3.496   7.053  0.00  0.00    +0.000 A 
ENDBRANCH  24  25
ENDBRANCH  23  24
ENDBRANCH  20  23
ENDBRANCH  16  17
ENDBRANCH   3  16
TORSDOF 6
ENDMDL
MODEL 4
REMARK VINA RESULT:    -7.390      2.624      3.625
REMARK INTER + INTRA:         -11.049
REMARK INTER:                  -9.964
REMARK INTRA:                  -1.085
REMARK UNBOUND:                -1.066
REMARK  Name = 
REMARK  6 active torsions:
REMARK  status: ('A' for Active; 'I' for Inactive)
REMARK    1  A    between atoms: C_2  and  C_19
REMARK    2  A    between atoms: N_3  and  C_4
REMARK    3  A    between atoms: C_4  and  C_5
REMARK    4  A    between atoms: C_8  and  O_9
REMARK    5  A    between atoms: O_9  and  C_10
REMARK    6  A    between atoms: C_10  and  C_11
REMARK                            x       y       z     vdW  Elec       q    Type
REMARK                         _______ _______ _______ _____ _____    ______ ____
ROOT
ATOM      1  O   UNL     1      46.961   8.486  13.728  0.00  0.00    +0.000 OA
ATOM      2  C   UNL     1      47.964   7.768  13.611  0.00  0.00    +0.000 C 
ATOM      3  N   UNL     1      47.906   6.403  13.662  0.00  0.00    +0.000 N 
ATOM      4  H   UNL     1      48.764   5.859  13.618  0.00  0.00    +0.000 HD
ENDROOT
BRANCH   2   5
ATOM      5  C   UNL     1      49.282   8.341  13.335  0.00  0.00    +0.000 A 
ATOM      6  C   UNL     1      49.494   9.299  12.356  0.00  0.00    +0.000 A 
ATOM      7  S   UNL     1      51.135   9.767  12.216  0.00  0.00    +0.000 S 
ATOM      8  C   UNL     1      51.597   8.741  13.494  0.00  0.00    +0.000 A 
ATOM      9  N   UNL     1      52.893   8.642  13.896  0.00  0.00    +0.000 NA
ATOM     10  C   UNL     1      53.084   7.860  14.898  0.00  0.00    +0.000 A 
ATOM     11  N   UNL     1      52.091   7.163  15.553  0.00  0.00    +0.000 N 
ATOM     12  C   UNL     1      50.783   7.200  15.161  0.00  0.00    +0.000 A 
ATOM     13  O   UNL     1      49.943   6.481  15.721  0.00  0.00    +0.000 OA
ATOM     14  C   UNL     1      50.515   8.058  14.027  0.00  0.00    +0.000 A 
ATOM     15  H   UNL     1      52.305   6.562  16.330  0.00  0.00    +0.000 HD
ENDBRANCH   2   5
BRANCH   3  16
ATOM     16  C   UNL     1      46.684   5.699  13.944  0.00  0.00    +0.000 C 
BRANCH  16  17
ATOM     17  C   UNL     1      46.052   5.069  12.728  0.00  0.00    +0.000 A 
ATOM     18  C   UNL     1      45.735   3.705  12.722  0.00  0.00    +0.000 A 
ATOM     19  C   UNL     1      45.101   3.103  11.622  0.00  0.00    +0.000 A 
ATOM     20  C   UNL     1      44.749   3.887  10.515  0.00  0.00    +0.000 A 
ATOM     21  C   UNL     1      45.071   5.241  10.521  0.00  0.00    +0.000 A 
ATOM     22  C   UNL     1      45.737   5.828  11.591  0.00  0.00    +0.000 A 
BRANCH  20  23
ATOM     23  O   UNL     1      44.121   3.325   9.425  0.00  0.00    +0.000 OA
BRANCH  23  24
ATOM     24  C   UNL     1      44.670   3.758   8.155  0.00  0.00    +0.000 C 
BRANCH  24  25
ATOM     25  C   UNL     1      45.815   2.876   7.728  0.00  0.00    +0.000 A 
ATOM     26  C   UNL     1      45.909   1.550   8.149  0.00  0.00    +0.000 A 
ATOM     27  C   UNL     1      46.969   0.784   7.696  0.00  0.00    +0.000 A 
ATOM     28  N   UNL     1      47.923   1.237   6.855  0.00  0.00    +0.000 NA
ATOM     29  C   UNL     1      47.807   2.518   6.448  0.00  0.00    +0.000 A 
ATOM     30  C   UNL     1      46.782   3.363   6.841  0.00  0.00    +0.000 A 
ENDBRANCH  24  25
ENDBRANCH  23  24
ENDBRANCH  20  23
ENDBRANCH  16  17
ENDBRANCH   3  16
TORSDOF 6
ENDMDL
MODEL 5
REMARK VINA RESULT:    -7.248      2.244      2.708
REMARK INTER + INTRA:         -10.856
REMARK INTER:                  -9.777
REMARK INTRA:                  -1.079
REMARK UNBOUND:                -1.066
REMARK  Name = 
REMARK  6 active torsions:
REMARK  status: ('A' for Active; 'I' for Inactive)
REMARK    1  A    between atoms: C_2  and  C_19
REMARK    2  A    between atoms: N_3  and  C_4
REMARK    3  A    between atoms: C_4  and  C_5
REMARK    4  A    between atoms: C_8  and  O_9
REMARK    5  A    between atoms: O_9  and  C_10
REMARK    6  A    between atoms: C_10  and  C_11
REMARK                            x       y       z     vdW  Elec       q    Type
REMARK                         _______ _______ _______ _____ _____    ______ ____
ROOT
ATOM      1  O   UNL     1      49.853   5.812  16.073  0.00  0.00    +0.000 OA
ATOM      2  C   UNL     1      49.141   6.820  16.185  0.00  0.00    +0.000 C 
ATOM      3  N   UNL     1      48.458   7.363  15.133  0.00  0.00    +0.000 N 
ATOM      4  H   UNL     1      47.932   8.224  15.263  0.00  0.00    +0.000 HD
ENDROOT
BRANCH   2   5
ATOM      5  C   UNL     1      48.928   7.460  17.484  0.00  0.00    +0.000 A 
ATOM      6  C   UNL     1      49.347   8.753  17.762  0.00  0.00    +0.000 A 
ATOM      7  S   UNL     1      49.007   9.239  19.368  0.00  0.00    +0.000 S 
ATOM      8  C   UNL     1      48.247   7.757  19.717  0.00  0.00    +0.000 A 
ATOM      9  N   UNL     1      47.727   7.495  20.948  0.00  0.00    +0.000 NA
ATOM     10  C   UNL     1      47.147   6.352  21.051  0.00  0.00    +0.000 A 
ATOM     11  N   UNL     1      47.026   5.436  20.029  0.00  0.00    +0.000 N 
ATOM     12  C   UNL     1      47.566   5.636  18.791  0.00  0.00    +0.000 A 
ATOM     13  O   UNL     1      47.514   4.743  17.935  0.00  0.00    +0.000 OA
ATOM     14  C   UNL     1      48.241   6.906  18.624  0.00  0.00    +0.000 A 
ATOM     15  H   UNL     1      46.565   4.554  20.174  0.00  0.00    +0.000 HD
ENDBRANCH   2   5
BRANCH   3  16
ATOM     16  C   UNL     1      48.584   6.855  13.794  0.00  0.00    +0.000 C 
BRANCH  16  17
ATOM     17  C   UNL     1      47.326   6.207  13.269  0.00  0.00    +0.000 A 
ATOM     18  C   UNL     1      46.494   6.896  12.379  0.00  0.00    +0.000 A 
ATOM     19  C   UNL     1      45.343   6.300  11.837  0.00  0.00    +0.000 A 
ATOM     20  C   UNL     1      45.033   4.975  12.170  0.00  0.00    +0.000 A 
ATOM     21  C   UNL     1      45.857   4.294  13.060  0.00  0.00    +0.000 A 
ATOM     22  C   UNL     1      46.972   4.899  13.630  0.00  0.00    +0.000 A 
BRANCH  20  23
ATOM     23  O   UNL     1      43.913   4.362  11.649  0.00  0.00    +0.000 OA
BRANCH  23  24
ATOM     24  C   UNL     1      43.717   4.622  10.236  0.00  0.00    +0.000 C 
BRANCH  24  25
ATOM     25  C   UNL     1      44.636   3.774   9.395  0.00  0.00    +0.000 A 
ATOM     26  C   UNL     1      44.666   2.385   9.524  0.00  0.00    +0.000 A 
ATOM     27  C   UNL     1      45.510   1.661   8.700  0.00  0.00    +0.000 A 
ATOM     28  N   UNL     1      46.307   2.214   7.761  0.00  0.00    +0.000 NA
ATOM     29  C   UNL     1      46.253   3.557   7.642  0.00  0.00    +0.000 A 
ATOM     30  C   UNL     1      45.439   4.368   8.416  0.00  0.00    +0.000 A 
ENDBRANCH  24  25
ENDBRANCH  23  24
ENDBRANCH  20  23
ENDBRANCH  16  17
ENDBRANCH   3  16
TORSDOF 6
ENDMDL
MODEL 6
REMARK VINA RESULT:    -6.947      3.303      4.172
REMARK INTER + INTRA:         -10.450
REMARK INTER:                  -9.213
REMARK INTRA:                  -1.238
REMARK UNBOUND:                -1.066
REMARK  Name = 
REMARK  6 active torsions:
REMARK  status: ('A' for Active; 'I' for Inactive)
REMARK    1  A    between atoms: C_2  and  C_19
REMARK    2  A    between atoms: N_3  and  C_4
REMARK    3  A    between atoms: C_4  and  C_5
REMARK    4  A    between atoms: C_8  and  O_9
REMARK    5  A    between atoms: O_9  and  C_10
REMARK    6  A    between atoms: C_10  and  C_11
REMARK                            x       y       z     vdW  Elec       q    Type
REMARK                         _______ _______ _______ _____ _____    ______ ____
ROOT
ATOM      1  O   UNL     1      46.414   9.983  12.319  0.00  0.00    +0.000 OA
ATOM      2  C   UNL     1      47.156   9.199  12.928  0.00  0.00    +0.000 C 
ATOM      3  N   UNL     1      46.731   7.981  13.382  0.00  0.00    +0.000 N 
ATOM      4  H   UNL     1      47.361   7.397  13.926  0.00  0.00    +0.000 HD
ENDROOT
BRANCH   2   5
ATOM      5  C   UNL     1      48.572   9.501  13.142  0.00  0.00    +0.000 A 
ATOM      6  C   UNL     1      49.009  10.432  14.072  0.00  0.00    +0.000 A 
ATOM      7  S   UNL     1      50.711  10.619  14.087  0.00  0.00    +0.000 S 
ATOM      8  C   UNL     1      50.911   9.426  12.890  0.00  0.00    +0.000 A 
ATOM      9  N   UNL     1      52.143   9.091  12.418  0.00  0.00    +0.000 NA
ATOM     10  C   UNL     1      52.142   8.145  11.547  0.00  0.00    +0.000 A 
ATOM     11  N   UNL     1      51.016   7.487  11.101  0.00  0.00    +0.000 N 
ATOM     12  C   UNL     1      49.757   7.815  11.516  0.00  0.00    +0.000 A 
ATOM     13  O   UNL     1      48.769   7.260  11.015  0.00  0.00    +0.000 OA
ATOM     14  C   UNL     1      49.700   8.884  12.490  0.00  0.00    +0.000 A 
ATOM     15  H   UNL     1      51.080   6.757  10.413  0.00  0.00    +0.000 HD
ENDBRANCH   2   5
BRANCH   3  16
ATOM     16  C   UNL     1      45.363   7.554  13.262  0.00  0.00    +0.000 C 
BRANCH  16  17
ATOM     17  C   UNL     1      45.187   6.308  12.430  0.00  0.00    +0.000 A 
ATOM     18  C   UNL     1      45.424   6.339  11.050  0.00  0.00    +0.000 A 
ATOM     19  C   UNL     1      45.315   5.183  10.259  0.00  0.00    +0.000 A 
ATOM     20  C   UNL     1      44.990   3.962  10.865  0.00  0.00    +0.000 A 
ATOM     21  C   UNL     1      44.747   3.935  12.235  0.00  0.00    +0.000 A 
ATOM     22  C   UNL     1      44.813   5.087  13.010  0.00  0.00    +0.000 A 
BRANCH  20  23
ATOM     23  O   UNL     1      44.881   2.811  10.115  0.00  0.00    +0.000 OA
BRANCH  23  24
ATOM     24  C   UNL     1      44.705   3.060   8.698  0.00  0.00    +0.000 C 
BRANCH  24  25
ATOM     25  C   UNL     1      45.871   2.533   7.904  0.00  0.00    +0.000 A 
ATOM     26  C   UNL     1      46.622   3.364   7.074  0.00  0.00    +0.000 A 
ATOM     27  C   UNL     1      47.701   2.824   6.394  0.00  0.00    +0.000 A 
ATOM     28  N   UNL     1      48.086   1.534   6.492  0.00  0.00    +0.000 NA
ATOM     29  C   UNL     1      47.355   0.749   7.311  0.00  0.00    +0.000 A 
ATOM     30  C   UNL     1      46.262   1.195   8.035  0.00  0.00    +0.000 A 
ENDBRANCH  24  25
ENDBRANCH  23  24
ENDBRANCH  20  23
ENDBRANCH  16  17
ENDBRANCH   3  16
TORSDOF 6
ENDMDL
MODEL 7
REMARK VINA RESULT:    -6.937      2.361      3.322
REMARK INTER + INTRA:         -10.436
REMARK INTER:                  -9.740
REMARK INTRA:                  -0.696
REMARK UNBOUND:                -1.066
REMARK  Name = 
REMARK  6 active torsions:
REMARK  status: ('A' for Active; 'I' for Inactive)
REMARK    1  A    between atoms: C_2  and  C_19
REMARK    2  A    between atoms: N_3  and  C_4
REMARK    3  A    between atoms: C_4  and  C_5
REMARK    4  A    between atoms: C_8  and  O_9
REMARK    5  A    between atoms: O_9  and  C_10
REMARK    6  A    between atoms: C_10  and  C_11
REMARK                            x       y       z     vdW  Elec       q    Type
REMARK                         _______ _______ _______ _____ _____    ______ ____
ROOT
ATOM      1  O   UNL     1      48.682   4.024  16.196  0.00  0.00    +0.000 OA
ATOM      2  C   UNL     1      48.440   5.147  16.663  0.00  0.00    +0.000 C 
ATOM      3  N   UNL     1      48.206   6.239  15.875  0.00  0.00    +0.000 N 
ATOM      4  H   UNL     1      48.069   7.151  16.304  0.00  0.00    +0.000 HD
ENDROOT
BRANCH   2   5
ATOM      5  C   UNL     1      48.319   5.361  18.105  0.00  0.00    +0.000 A 
ATOM      6  C   UNL     1      47.145   5.793  18.704  0.00  0.00    +0.000 A 
ATOM      7  S   UNL     1      47.290   6.000  20.397  0.00  0.00    +0.000 S 
ATOM      8  C   UNL     1      48.908   5.471  20.382  0.00  0.00    +0.000 A 
ATOM      9  N   UNL     1      49.650   5.415  21.521  0.00  0.00    +0.000 NA
ATOM     10  C   UNL     1      50.840   4.956  21.361  0.00  0.00    +0.000 A 
ATOM     11  N   UNL     1      51.367   4.534  20.160  0.00  0.00    +0.000 N 
ATOM     12  C   UNL     1      50.675   4.609  18.984  0.00  0.00    +0.000 A 
ATOM     13  O   UNL     1      51.224   4.307  17.916  0.00  0.00    +0.000 OA
ATOM     14  C   UNL     1      49.330   5.130  19.107  0.00  0.00    +0.000 A 
ATOM     15  H   UNL     1      52.309   4.189  20.098  0.00  0.00    +0.000 HD
ENDBRANCH   2   5
BRANCH   3  16
ATOM     16  C   UNL     1      48.309   6.186  14.442  0.00  0.00    +0.000 C 
BRANCH  16  17
ATOM     17  C   UNL     1      47.068   5.661  13.763  0.00  0.00    +0.000 A 
ATOM     18  C   UNL     1      46.133   6.548  13.215  0.00  0.00    +0.000 A 
ATOM     19  C   UNL     1      44.993   6.087  12.535  0.00  0.00    +0.000 A 
ATOM     20  C   UNL     1      44.799   4.708  12.373  0.00  0.00    +0.000 A 
ATOM     21  C   UNL     1      45.726   3.829  12.925  0.00  0.00    +0.000 A 
ATOM     22  C   UNL     1      46.830   4.285  13.635  0.00  0.00    +0.000 A 
BRANCH  20  23
ATOM     23  O   UNL     1      43.693   4.227  11.706  0.00  0.00    +0.000 OA
BRANCH  23  24
ATOM     24  C   UNL     1      43.615   4.665  10.326  0.00  0.00    +0.000 C 
BRANCH  24  25
ATOM     25  C   UNL     1      44.507   3.834   9.441  0.00  0.00    +0.000 A 
ATOM     26  C   UNL     1      45.376   4.424   8.522  0.00  0.00    +0.000 A 
ATOM     27  C   UNL     1      46.191   3.606   7.760  0.00  0.00    +0.000 A 
ATOM     28  N   UNL     1      46.211   2.259   7.855  0.00  0.00    +0.000 NA
ATOM     29  C   UNL     1      45.374   1.708   8.759  0.00  0.00    +0.000 A 
ATOM     30  C   UNL     1      44.523   2.441   9.570  0.00  0.00    +0.000 A 
ENDBRANCH  24  25
ENDBRANCH  23  24
ENDBRANCH  20  23
ENDBRANCH  16  17
ENDBRANCH   3  16
TORSDOF 6
ENDMDL
MODEL 8
REMARK VINA RESULT:    -6.931      3.743      7.587
REMARK INTER + INTRA:         -10.428
REMARK INTER:                  -9.050
REMARK INTRA:                  -1.379
REMARK UNBOUND:                -1.066
REMARK  Name = 
REMARK  6 active torsions:
REMARK  status: ('A' for Active; 'I' for Inactive)
REMARK    1  A    between atoms: C_2  and  C_19
REMARK    2  A    between atoms: N_3  and  C_4
REMARK    3  A    between atoms: C_4  and  C_5
REMARK    4  A    between atoms: C_8  and  O_9
REMARK    5  A    between atoms: O_9  and  C_10
REMARK    6  A    between atoms: C_10  and  C_11
REMARK                            x       y       z     vdW  Elec       q    Type
REMARK                         _______ _______ _______ _____ _____    ______ ____
ROOT
ATOM      1  O   UNL     1      48.073   7.159  12.092  0.00  0.00    +0.000 OA
ATOM      2  C   UNL     1      47.009   7.366  12.694  0.00  0.00    +0.000 C 
ATOM      3  N   UNL     1      46.910   8.238  13.741  0.00  0.00    +0.000 N 
ATOM      4  H   UNL     1      46.029   8.331  14.240  0.00  0.00    +0.000 HD
ENDROOT
BRANCH   2   5
ATOM      5  C   UNL     1      45.760   6.733  12.270  0.00  0.00    +0.000 A 
ATOM      6  C   UNL     1      44.747   7.427  11.624  0.00  0.00    +0.000 A 
ATOM      7  S   UNL     1      43.381   6.456  11.277  0.00  0.00    +0.000 S 
ATOM      8  C   UNL     1      44.125   5.073  11.932  0.00  0.00    +0.000 A 
ATOM      9  N   UNL     1      43.488   3.871  11.967  0.00  0.00    +0.000 NA
ATOM     10  C   UNL     1      44.190   2.908  12.452  0.00  0.00    +0.000 A 
ATOM     11  N   UNL     1      45.486   3.029  12.904  0.00  0.00    +0.000 N 
ATOM     12  C   UNL     1      46.151   4.222  12.926  0.00  0.00    +0.000 A 
ATOM     13  O   UNL     1      47.280   4.298  13.431  0.00  0.00    +0.000 OA
ATOM     14  C   UNL     1      45.401   5.342  12.400  0.00  0.00    +0.000 A 
ATOM     15  H   UNL     1      45.981   2.238  13.279  0.00  0.00    +0.000 HD
ENDBRANCH   2   5
BRANCH   3  16
ATOM     16  C   UNL     1      48.056   8.919  14.282  0.00  0.00    +0.000 C 
BRANCH  16  17
ATOM     17  C   UNL     1      48.722   8.180  15.416  0.00  0.00    +0.000 A 
ATOM     18  C   UNL     1      48.293   8.373  16.734  0.00  0.00    +0.000 A 
ATOM     19  C   UNL     1      48.863   7.663  17.805  0.00  0.00    +0.000 A 
ATOM     20  C   UNL     1      49.863   6.716  17.547  0.00  0.00    +0.000 A 
ATOM     21  C   UNL     1      50.293   6.531  16.237  0.00  0.00    +0.000 A 
ATOM     22  C   UNL     1      49.760   7.265  15.184  0.00  0.00    +0.000 A 
BRANCH  20  23
ATOM     23  O   UNL     1      50.435   6.000  18.577  0.00  0.00    +0.000 OA
BRANCH  23  24
ATOM     24  C   UNL     1      49.593   4.932  19.076  0.00  0.00    +0.000 C 
BRANCH  24  25
ATOM     25  C   UNL     1      49.521   3.792  18.094  0.00  0.00    +0.000 A 
ATOM     26  C   UNL     1      48.345   3.496  17.406  0.00  0.00    +0.000 A 
ATOM     27  C   UNL     1      48.354   2.454  16.494  0.00  0.00    +0.000 A 
ATOM     28  N   UNL     1      49.440   1.704  16.215  0.00  0.00    +0.000 NA
ATOM     29  C   UNL     1      50.572   2.014  16.880  0.00  0.00    +0.000 A 
ATOM     30  C   UNL     1      50.666   3.039  17.807  0.00  0.00    +0.000 A 
ENDBRANCH  24  25
ENDBRANCH  23  24
ENDBRANCH  20  23
ENDBRANCH  16  17
ENDBRANCH   3  16
TORSDOF 6
ENDMDL
MODEL 9
REMARK VINA RESULT:    -6.702      1.858      2.522
REMARK INTER + INTRA:         -10.120
REMARK INTER:                  -8.800
REMARK INTRA:                  -1.319
REMARK UNBOUND:                -1.066
REMARK  Name = 
REMARK  6 active torsions:
REMARK  status: ('A' for Active; 'I' for Inactive)
REMARK    1  A    between atoms: C_2  and  C_19
REMARK    2  A    between atoms: N_3  and  C_4
REMARK    3  A    between atoms: C_4  and  C_5
REMARK    4  A    between atoms: C_8  and  O_9
REMARK    5  A    between atoms: O_9  and  C_10
REMARK    6  A    between atoms: C_10  and  C_11
REMARK                            x       y       z     vdW  Elec       q    Type
REMARK                         _______ _______ _______ _____ _____    ______ ____
ROOT
ATOM      1  O   UNL     1      49.271   9.068  15.179  0.00  0.00    +0.000 OA
ATOM      2  C   UNL     1      49.726   7.955  14.874  0.00  0.00    +0.000 C 
ATOM      3  N   UNL     1      49.419   7.328  13.699  0.00  0.00    +0.000 N 
ATOM      4  H   UNL     1      49.772   6.391  13.520  0.00  0.00    +0.000 HD
ENDROOT
BRANCH   2   5
ATOM      5  C   UNL     1      50.689   7.266  15.734  0.00  0.00    +0.000 A 
ATOM      6  C   UNL     1      52.003   7.685  15.876  0.00  0.00    +0.000 A 
ATOM      7  S   UNL     1      52.923   6.676  16.909  0.00  0.00    +0.000 S 
ATOM      8  C   UNL     1      51.578   5.684  17.234  0.00  0.00    +0.000 A 
ATOM      9  N   UNL     1      51.673   4.601  18.052  0.00  0.00    +0.000 NA
ATOM     10  C   UNL     1      50.567   3.972  18.237  0.00  0.00    +0.000 A 
ATOM     11  N   UNL     1      49.356   4.330  17.683  0.00  0.00    +0.000 N 
ATOM     12  C   UNL     1      49.220   5.384  16.825  0.00  0.00    +0.000 A 
ATOM     13  O   UNL     1      48.132   5.607  16.278  0.00  0.00    +0.000 OA
ATOM     14  C   UNL     1      50.441   6.120  16.574  0.00  0.00    +0.000 A 
ATOM     15  H   UNL     1      48.525   3.793  17.862  0.00  0.00    +0.000 HD
ENDBRANCH   2   5
BRANCH   3  16
ATOM     16  C   UNL     1      48.473   7.874  12.764  0.00  0.00    +0.000 C 
BRANCH  16  17
ATOM     17  C   UNL     1      47.277   6.987  12.522  0.00  0.00    +0.000 A 
ATOM     18  C   UNL     1      46.173   7.468  11.808  0.00  0.00    +0.000 A 
ATOM     19  C   UNL     1      45.066   6.650  11.526  0.00  0.00    +0.000 A 
ATOM     20  C   UNL     1      45.076   5.312  11.942  0.00  0.00    +0.000 A 
ATOM     21  C   UNL     1      46.171   4.838  12.657  0.00  0.00    +0.000 A 
ATOM     22  C   UNL     1      47.247   5.660  12.974  0.00  0.00    +0.000 A 
BRANCH  20  23
ATOM     23  O   UNL     1      44.007   4.484  11.674  0.00  0.00    +0.000 OA
BRANCH  23  24
ATOM     24  C   UNL     1      43.572   4.530  10.292  0.00  0.00    +0.000 C 
BRANCH  24  25
ATOM     25  C   UNL     1      44.501   3.745   9.404  0.00  0.00    +0.000 A 
ATOM     26  C   UNL     1      45.305   4.373   8.453  0.00  0.00    +0.000 A 
ATOM     27  C   UNL     1      46.160   3.597   7.689  0.00  0.00    +0.000 A 
ATOM     28  N   UNL     1      46.277   2.258   7.813  0.00  0.00    +0.000 NA
ATOM     29  C   UNL     1      45.502   1.670   8.747  0.00  0.00    +0.000 A 
ATOM     30  C   UNL     1      44.619   2.359   9.563  0.00  0.00    +0.000 A 
ENDBRANCH  24  25
ENDBRANCH  23  24
ENDBRANCH  20  23
ENDBRANCH  16  17
ENDBRANCH   3  16
TORSDOF 6
ENDMDL
