MODEL 1
REMARK VINA RESULT:    -8.024      0.000      0.000
REMARK INTER + INTRA:         -12.241
REMARK INTER:                 -11.308
REMARK INTRA:                  -0.933
REMARK UNBOUND:                -0.933
REMARK  Name = 
REMARK  9 active torsions:
REMARK  status: ('A' for Active; 'I' for Inactive)
REMARK    1  A    between atoms: C_1  and  O_2
REMARK    2  A    between atoms: O_2  and  C_3
REMARK    3  A    between atoms: C_5  and  C_6
REMARK    4  A    between atoms: C_6  and  C_7
REMARK    5  A    between atoms: C_7  and  N_8
REMARK    6  A    between atoms: C_12  and  C_13
REMARK    7  A    between atoms: C_19  and  S_20
REMARK    8  A    between atoms: S_20  and  C_21
REMARK    9  A    between atoms: N_23  and  C_24
REMARK                            x       y       z     vdW  Elec       q    Type
REMARK                         _______ _______ _______ _____ _____    ______ ____
ROOT
ATOM      1  C   UNL     1      43.318   5.062  12.264  0.00  0.00    +0.000 C 
ENDROOT
BRANCH   1   4
ATOM      2  C   UNL     1      46.714   4.255  13.877  0.00  0.00    +0.000 A 
ATOM      3  C   UNL     1      45.455   4.088  13.308  0.00  0.00    +0.000 A 
ATOM      4  C   UNL     1      44.734   5.193  12.812  0.00  0.00    +0.000 A 
ATOM      5  C   UNL     1      45.333   6.474  12.862  0.00  0.00    +0.000 A 
ATOM      6  C   UNL     1      46.617   6.648  13.394  0.00  0.00    +0.000 A 
ATOM      7  C   UNL     1      47.282   5.530  13.916  0.00  0.00    +0.000 A 
BRANCH   2   9
ATOM      8  C   UNL     1      47.709   3.346  15.852  0.00  0.00    +0.000 C 
ATOM      9  O   UNL     1      47.475   3.271  14.451  0.00  0.00    +0.000 OA
ENDBRANCH   2   9
BRANCH   6  10
ATOM     10  S   UNL     1      47.395   8.235  13.658  0.00  0.00    +0.000 S 
BRANCH  10  11
ATOM     11  C   UNL     1      49.075   8.017  12.988  0.00  0.00    +0.000 C 
ATOM     12  C   UNL     1      49.875   9.295  12.666  0.00  0.00    +0.000 C 
ATOM     13  N   UNL     1      50.157   8.781  11.301  0.00  0.00    +0.000 NA
ATOM     14  C   UNL     1      51.438   8.077  11.246  0.00  0.00    +0.000 C 
ATOM     15  C   UNL     1      49.044   7.815  11.446  0.00  0.00    +0.000 C 
ENDBRANCH  10  11
ENDBRANCH   6  10
ENDBRANCH   1   4
BRANCH   1  16
ATOM     16  C   UNL     1      43.208   4.454  10.861  0.00  0.00    +0.000 C 
BRANCH  16  17
ATOM     17  N   UNL     1      44.073   5.133   9.889  0.00  0.00    +0.000 N 
ATOM     18  C   UNL     1      44.884   4.209   9.192  0.00  0.00    +0.000 A 
ATOM     19  C   UNL     1      45.769   4.674   8.225  0.00  0.00    +0.000 A 
ATOM     20  C   UNL     1      46.560   3.759   7.528  0.00  0.00    +0.000 A 
ATOM     21  C   UNL     1      46.456   2.394   7.809  0.00  0.00    +0.000 A 
ATOM     22  C   UNL     1      45.548   2.022   8.779  0.00  0.00    +0.000 A 
ATOM     23  N   UNL     1      44.768   2.892   9.462  0.00  0.00    +0.000 NA
ATOM     24  H   UNL     1      44.669   5.835  10.310  0.00  0.00    +0.000 HD
BRANCH  21  25
ATOM     25  C   UNL     1      47.304   1.424   7.086  0.00  0.00    +0.000 C 
ATOM     26  N   UNL     1      48.411   1.872   6.418  0.00  0.00    +0.000 N 
ATOM     27  O   UNL     1      47.029   0.233   7.074  0.00  0.00    +0.000 OA
ATOM     28  H   UNL     1      48.733   2.827   6.355  0.00  0.00    +0.000 HD
ATOM     29  H   UNL     1      48.957   1.168   5.937  0.00  0.00    +0.000 HD
ENDBRANCH  21  25
ENDBRANCH  16  17
ENDBRANCH   1  16
TORSDOF 7
ENDMDL
MODEL 2
REMARK VINA RESULT:    -7.513      1.465      1.956
REMARK INTER + INTRA:         -11.520
REMARK INTER:                 -10.627
REMARK INTRA:                  -0.892
REMARK UNBOUND:                -0.933
REMARK  Name = 
REMARK  9 active torsions:
REMARK  status: ('A' for Active; 'I' for Inactive)
REMARK    1  A    between atoms: C_1  and  O_2
REMARK    2  A    between atoms: O_2  and  C_3
REMARK    3  A    between atoms: C_5  and  C_6
REMARK    4  A    between atoms: C_6  and  C_7
REMARK    5  A    between atoms: C_7  and  N_8
REMARK    6  A    between atoms: C_12  and  C_13
REMARK    7  A    between atoms: C_19  and  S_20
REMARK    8  A    between atoms: S_20  and  C_21
REMARK    9  A    between atoms: N_23  and  C_24
REMARK                            x       y       z     vdW  Elec       q    Type
REMARK                         _______ _______ _______ _____ _____    ______ ____
ROOT
ATOM      1  C   UNL     1      43.730   5.731  12.036  0.00  0.00    +0.000 C 
ENDROOT
BRANCH   1   4
ATOM      2  C   UNL     1      46.859   4.570  13.946  0.00  0.00    +0.000 A 
ATOM      3  C   UNL     1      45.551   4.625  13.472  0.00  0.00    +0.000 A 
ATOM      4  C   UNL     1      45.170   5.583  12.511  0.00  0.00    +0.000 A 
ATOM      5  C   UNL     1      46.154   6.465  12.002  0.00  0.00    +0.000 A 
ATOM      6  C   UNL     1      47.482   6.391  12.442  0.00  0.00    +0.000 A 
ATOM      7  C   UNL     1      47.810   5.452  13.429  0.00  0.00    +0.000 A 
BRANCH   2   9
ATOM      8  C   UNL     1      47.272   4.188  16.269  0.00  0.00    +0.000 C 
ATOM      9  O   UNL     1      47.326   3.732  14.923  0.00  0.00    +0.000 OA
ENDBRANCH   2   9
BRANCH   6  10
ATOM     10  S   UNL     1      48.759   7.557  11.992  0.00  0.00    +0.000 S 
BRANCH  10  11
ATOM     11  C   UNL     1      49.144   8.411  13.555  0.00  0.00    +0.000 C 
ATOM     12  C   UNL     1      48.093   9.402  14.092  0.00  0.00    +0.000 C 
ATOM     13  N   UNL     1      49.140  10.449  14.223  0.00  0.00    +0.000 NA
ATOM     14  C   UNL     1      49.712  10.470  15.569  0.00  0.00    +0.000 C 
ATOM     15  C   UNL     1      50.010   9.678  13.305  0.00  0.00    +0.000 C 
ENDBRANCH  10  11
ENDBRANCH   6  10
ENDBRANCH   1   4
BRANCH   1  16
ATOM     16  C   UNL     1      43.437   5.171  10.639  0.00  0.00    +0.000 C 
BRANCH  16  17
ATOM     17  N   UNL     1      43.649   3.721  10.562  0.00  0.00    +0.000 N 
ATOM     18  C   UNL     1      44.578   3.392   9.551  0.00  0.00    +0.000 A 
ATOM     19  C   UNL     1      44.906   2.057   9.334  0.00  0.00    +0.000 A 
ATOM     20  C   UNL     1      45.834   1.735   8.343  0.00  0.00    +0.000 A 
ATOM     21  C   UNL     1      46.419   2.750   7.581  0.00  0.00    +0.000 A 
ATOM     22  C   UNL     1      46.040   4.046   7.867  0.00  0.00    +0.000 A 
ATOM     23  N   UNL     1      45.147   4.380   8.828  0.00  0.00    +0.000 NA
ATOM     24  H   UNL     1      42.795   3.203  10.400  0.00  0.00    +0.000 HD
BRANCH  21  25
ATOM     25  C   UNL     1      47.389   2.411   6.519  0.00  0.00    +0.000 C 
ATOM     26  N   UNL     1      47.432   3.176   5.385  0.00  0.00    +0.000 N 
ATOM     27  O   UNL     1      48.147   1.460   6.638  0.00  0.00    +0.000 OA
ATOM     28  H   UNL     1      46.855   3.978   5.175  0.00  0.00    +0.000 HD
ATOM     29  H   UNL     1      48.111   2.900   4.687  0.00  0.00    +0.000 HD
ENDBRANCH  21  25
ENDBRANCH  16  17
ENDBRANCH   1  16
TORSDOF 7
ENDMDL
MODEL 3
REMARK VINA RESULT:    -7.218      2.973      3.968
REMARK INTER + INTRA:         -11.104
REMARK INTER:                 -10.410
REMARK INTRA:                  -0.694
REMARK UNBOUND:                -0.933
REMARK  Name = 
REMARK  9 active torsions:
REMARK  status: ('A' for Active; 'I' for Inactive)
REMARK    1  A    between atoms: C_1  and  O_2
REMARK    2  A    between atoms: O_2  and  C_3
REMARK    3  A    between atoms: C_5  and  C_6
REMARK    4  A    between atoms: C_6  and  C_7
REMARK    5  A    between atoms: C_7  and  N_8
REMARK    6  A    between atoms: C_12  and  C_13
REMARK    7  A    between atoms: C_19  and  S_20
REMARK    8  A    between atoms: S_20  and  C_21
REMARK    9  A    between atoms: N_23  and  C_24
REMARK                            x       y       z     vdW  Elec       q    Type
REMARK                         _______ _______ _______ _____ _____    ______ ____
ROOT
ATOM      1  C   UNL     1      43.891   5.386  12.111  0.00  0.00    +0.000 C 
ENDROOT
BRANCH   1   4
ATOM      2  C   UNL     1      47.372   6.747  13.016  0.00  0.00    +0.000 A 
ATOM      3  C   UNL     1      46.321   5.860  12.800  0.00  0.00    +0.000 A 
ATOM      4  C   UNL     1      45.091   6.310  12.278  0.00  0.00    +0.000 A 
ATOM      5  C   UNL     1      44.957   7.676  11.934  0.00  0.00    +0.000 A 
ATOM      6  C   UNL     1      46.022   8.570  12.109  0.00  0.00    +0.000 A 
ATOM      7  C   UNL     1      47.213   8.090  12.670  0.00  0.00    +0.000 A 
BRANCH   2   9
ATOM      8  C   UNL     1      49.603   7.428  13.537  0.00  0.00    +0.000 C 
ATOM      9  O   UNL     1      48.582   6.439  13.579  0.00  0.00    +0.000 OA
ENDBRANCH   2   9
BRANCH   6  10
ATOM     10  S   UNL     1      45.906  10.337  11.867  0.00  0.00    +0.000 S 
BRANCH  10  11
ATOM     11  C   UNL     1      44.150  10.610  11.466  0.00  0.00    +0.000 C 
ATOM     12  C   UNL     1      43.730  10.439   9.993  0.00  0.00    +0.000 C 
ATOM     13  N   UNL     1      43.078  11.774  10.018  0.00  0.00    +0.000 NA
ATOM     14  C   UNL     1      41.654  11.670  10.339  0.00  0.00    +0.000 C 
ATOM     15  C   UNL     1      43.856  12.119  11.230  0.00  0.00    +0.000 C 
ENDBRANCH  10  11
ENDBRANCH   6  10
ENDBRANCH   1   4
BRANCH   1  16
ATOM     16  C   UNL     1      43.615   4.916  10.678  0.00  0.00    +0.000 C 
BRANCH  16  17
ATOM     17  N   UNL     1      43.832   3.474  10.511  0.00  0.00    +0.000 N 
ATOM     18  C   UNL     1      44.760   3.213   9.478  0.00  0.00    +0.000 A 
ATOM     19  C   UNL     1      45.092   1.896   9.179  0.00  0.00    +0.000 A 
ATOM     20  C   UNL     1      46.019   1.639   8.167  0.00  0.00    +0.000 A 
ATOM     21  C   UNL     1      46.599   2.702   7.469  0.00  0.00    +0.000 A 
ATOM     22  C   UNL     1      46.215   3.976   7.836  0.00  0.00    +0.000 A 
ATOM     23  N   UNL     1      45.324   4.247   8.818  0.00  0.00    +0.000 NA
ATOM     24  H   UNL     1      42.979   2.964  10.318  0.00  0.00    +0.000 HD
BRANCH  21  25
ATOM     25  C   UNL     1      47.567   2.435   6.385  0.00  0.00    +0.000 C 
ATOM     26  N   UNL     1      47.437   3.095   5.194  0.00  0.00    +0.000 N 
ATOM     27  O   UNL     1      48.477   1.633   6.538  0.00  0.00    +0.000 OA
ATOM     28  H   UNL     1      46.727   3.772   4.953  0.00  0.00    +0.000 HD
ATOM     29  H   UNL     1      48.123   2.874   4.484  0.00  0.00    +0.000 HD
ENDBRANCH  21  25
ENDBRANCH  16  17
ENDBRANCH   1  16
TORSDOF 7
ENDMDL
MODEL 4
REMARK VINA RESULT:    -6.601      2.671      3.793
REMARK INTER + INTRA:         -10.236
REMARK INTER:                  -9.794
REMARK INTRA:                  -0.441
REMARK UNBOUND:                -0.933
REMARK  Name = 
REMARK  9 active torsions:
REMARK  status: ('A' for Active; 'I' for Inactive)
REMARK    1  A    between atoms: C_1  and  O_2
REMARK    2  A    between atoms: O_2  and  C_3
REMARK    3  A    between atoms: C_5  and  C_6
REMARK    4  A    between atoms: C_6  and  C_7
REMARK    5  A    between atoms: C_7  and  N_8
REMARK    6  A    between atoms: C_12  and  C_13
REMARK    7  A    between atoms: C_19  and  S_20
REMARK    8  A    between atoms: S_20  and  C_21
REMARK    9  A    between atoms: N_23  and  C_24
REMARK                            x       y       z     vdW  Elec       q    Type
REMARK                         _______ _______ _______ _____ _____    ______ ____
ROOT
ATOM      1  C   UNL     1      44.466   4.854  12.314  0.00  0.00    +0.000 C 
ENDROOT
BRANCH   1   4
ATOM      2  C   UNL     1      45.485   8.531  11.835  0.00  0.00    +0.000 A 
ATOM      3  C   UNL     1      44.719   7.369  11.848  0.00  0.00    +0.000 A 
ATOM      4  C   UNL     1      45.241   6.165  12.364  0.00  0.00    +0.000 A 
ATOM      5  C   UNL     1      46.547   6.169  12.909  0.00  0.00    +0.000 A 
ATOM      6  C   UNL     1      47.312   7.342  12.938  0.00  0.00    +0.000 A 
ATOM      7  C   UNL     1      46.771   8.508  12.378  0.00  0.00    +0.000 A 
BRANCH   2   9
ATOM      8  C   UNL     1      43.750  10.128  11.439  0.00  0.00    +0.000 C 
ATOM      9  O   UNL     1      45.110   9.736  11.301  0.00  0.00    +0.000 OA
ENDBRANCH   2   9
BRANCH   6  10
ATOM     10  S   UNL     1      49.023   7.419  13.447  0.00  0.00    +0.000 S 
BRANCH  10  11
ATOM     11  C   UNL     1      48.953   7.202  15.255  0.00  0.00    +0.000 C 
ATOM     12  C   UNL     1      50.258   6.793  15.966  0.00  0.00    +0.000 C 
ATOM     13  N   UNL     1      49.549   5.671  16.633  0.00  0.00    +0.000 NA
ATOM     14  C   UNL     1      49.060   6.057  17.957  0.00  0.00    +0.000 C 
ATOM     15  C   UNL     1      48.463   5.775  15.631  0.00  0.00    +0.000 C 
ENDBRANCH  10  11
ENDBRANCH   6  10
ENDBRANCH   1   4
BRANCH   1  16
ATOM     16  C   UNL     1      43.773   4.550  10.980  0.00  0.00    +0.000 C 
BRANCH  16  17
ATOM     17  N   UNL     1      43.880   3.135  10.605  0.00  0.00    +0.000 N 
ATOM     18  C   UNL     1      44.778   2.957   9.530  0.00  0.00    +0.000 A 
ATOM     19  C   UNL     1      45.008   1.675   9.039  0.00  0.00    +0.000 A 
ATOM     20  C   UNL     1      45.906   1.499   7.985  0.00  0.00    +0.000 A 
ATOM     21  C   UNL     1      46.559   2.606   7.435  0.00  0.00    +0.000 A 
ATOM     22  C   UNL     1      46.275   3.839   7.987  0.00  0.00    +0.000 A 
ATOM     23  N   UNL     1      45.413   4.031   9.013  0.00  0.00    +0.000 NA
ATOM     24  H   UNL     1      42.990   2.722  10.357  0.00  0.00    +0.000 HD
BRANCH  21  25
ATOM     25  C   UNL     1      47.496   2.426   6.307  0.00  0.00    +0.000 C 
ATOM     26  N   UNL     1      47.340   3.186   5.180  0.00  0.00    +0.000 N 
ATOM     27  O   UNL     1      48.403   1.609   6.367  0.00  0.00    +0.000 OA
ATOM     28  H   UNL     1      46.630   3.885   5.017  0.00  0.00    +0.000 HD
ATOM     29  H   UNL     1      48.006   3.022   4.436  0.00  0.00    +0.000 HD
ENDBRANCH  21  25
ENDBRANCH  16  17
ENDBRANCH   1  16
TORSDOF 7
ENDMDL
MODEL 5
REMARK VINA RESULT:    -6.572      2.354      3.301
REMARK INTER + INTRA:         -10.194
REMARK INTER:                  -9.641
REMARK INTRA:                  -0.553
REMARK UNBOUND:                -0.933
REMARK  Name = 
REMARK  9 active torsions:
REMARK  status: ('A' for Active; 'I' for Inactive)
REMARK    1  A    between atoms: C_1  and  O_2
REMARK    2  A    between atoms: O_2  and  C_3
REMARK    3  A    between atoms: C_5  and  C_6
REMARK    4  A    between atoms: C_6  and  C_7
REMARK    5  A    between atoms: C_7  and  N_8
REMARK    6  A    between atoms: C_12  and  C_13
REMARK    7  A    between atoms: C_19  and  S_20
REMARK    8  A    between atoms: S_20  and  C_21
REMARK    9  A    between atoms: N_23  and  C_24
REMARK                            x       y       z     vdW  Elec       q    Type
REMARK                         _______ _______ _______ _____ _____    ______ ____
ROOT
ATOM      1  C   UNL     1      44.665   5.095  12.194  0.00  0.00    +0.000 C 
ENDROOT
BRANCH   1   4
ATOM      2  C   UNL     1      44.682   8.870  11.465  0.00  0.00    +0.000 A 
ATOM      3  C   UNL     1      44.302   7.531  11.463  0.00  0.00    +0.000 A 
ATOM      4  C   UNL     1      44.996   6.581  12.240  0.00  0.00    +0.000 A 
ATOM      5  C   UNL     1      46.063   7.022  13.059  0.00  0.00    +0.000 A 
ATOM      6  C   UNL     1      46.428   8.374  13.100  0.00  0.00    +0.000 A 
ATOM      7  C   UNL     1      45.739   9.278  12.280  0.00  0.00    +0.000 A 
BRANCH   2   9
ATOM      8  C   UNL     1      43.538  10.968  11.380  0.00  0.00    +0.000 C 
ATOM      9  O   UNL     1      44.129   9.865  10.703  0.00  0.00    +0.000 OA
ENDBRANCH   2   9
BRANCH   6  10
ATOM     10  S   UNL     1      47.857   9.007  13.965  0.00  0.00    +0.000 S 
BRANCH  10  11
ATOM     11  C   UNL     1      49.269   8.294  13.061  0.00  0.00    +0.000 C 
ATOM     12  C   UNL     1      50.480   9.214  12.809  0.00  0.00    +0.000 C 
ATOM     13  N   UNL     1      50.444   8.873  11.363  0.00  0.00    +0.000 NA
ATOM     14  C   UNL     1      51.342   7.761  11.051  0.00  0.00    +0.000 C 
ATOM     15  C   UNL     1      49.055   8.385  11.523  0.00  0.00    +0.000 C 
ENDBRANCH  10  11
ENDBRANCH   6  10
ENDBRANCH   1   4
BRANCH   1  16
ATOM     16  C   UNL     1      43.749   4.659  11.044  0.00  0.00    +0.000 C 
BRANCH  16  17
ATOM     17  N   UNL     1      43.942   3.251  10.679  0.00  0.00    +0.000 N 
ATOM     18  C   UNL     1      44.791   3.125   9.556  0.00  0.00    +0.000 A 
ATOM     19  C   UNL     1      45.090   1.858   9.067  0.00  0.00    +0.000 A 
ATOM     20  C   UNL     1      45.939   1.735   7.966  0.00  0.00    +0.000 A 
ATOM     21  C   UNL     1      46.474   2.880   7.369  0.00  0.00    +0.000 A 
ATOM     22  C   UNL     1      46.128   4.095   7.923  0.00  0.00    +0.000 A 
ATOM     23  N   UNL     1      45.312   4.236   8.994  0.00  0.00    +0.000 NA
ATOM     24  H   UNL     1      43.074   2.768  10.485  0.00  0.00    +0.000 HD
BRANCH  21  25
ATOM     25  C   UNL     1      47.359   2.755   6.192  0.00  0.00    +0.000 C 
ATOM     26  N   UNL     1      48.677   2.438   6.378  0.00  0.00    +0.000 N 
ATOM     27  O   UNL     1      46.932   2.933   5.061  0.00  0.00    +0.000 OA
ATOM     28  H   UNL     1      49.140   2.273   7.260  0.00  0.00    +0.000 HD
ATOM     29  H   UNL     1      49.241   2.367   5.540  0.00  0.00    +0.000 HD
ENDBRANCH  21  25
ENDBRANCH  16  17
ENDBRANCH   1  16
TORSDOF 7
ENDMDL
MODEL 6
REMARK VINA RESULT:    -6.180      4.218      8.012
REMARK INTER + INTRA:          -9.642
REMARK INTER:                  -9.532
REMARK INTRA:                  -0.110
REMARK UNBOUND:                -0.933
REMARK  Name = 
REMARK  9 active torsions:
REMARK  status: ('A' for Active; 'I' for Inactive)
REMARK    1  A    between atoms: C_1  and  O_2
REMARK    2  A    between atoms: O_2  and  C_3
REMARK    3  A    between atoms: C_5  and  C_6
REMARK    4  A    between atoms: C_6  and  C_7
REMARK    5  A    between atoms: C_7  and  N_8
REMARK    6  A    between atoms: C_12  and  C_13
REMARK    7  A    between atoms: C_19  and  S_20
REMARK    8  A    between atoms: S_20  and  C_21
REMARK    9  A    between atoms: N_23  and  C_24
REMARK                            x       y       z     vdW  Elec       q    Type
REMARK                         _______ _______ _______ _____ _____    ______ ____
ROOT
ATOM      1  C   UNL     1      47.276   4.005  14.948  0.00  0.00    +0.000 C 
ENDROOT
BRANCH   1   4
ATOM      2  C   UNL     1      47.024   7.192  12.811  0.00  0.00    +0.000 A 
ATOM      3  C   UNL     1      47.530   6.220  13.669  0.00  0.00    +0.000 A 
ATOM      4  C   UNL     1      46.796   5.049  13.947  0.00  0.00    +0.000 A 
ATOM      5  C   UNL     1      45.549   4.858  13.303  0.00  0.00    +0.000 A 
ATOM      6  C   UNL     1      45.050   5.811  12.406  0.00  0.00    +0.000 A 
ATOM      7  C   UNL     1      45.791   6.980  12.189  0.00  0.00    +0.000 A 
BRANCH   2   9
ATOM      8  C   UNL     1      48.934   8.375  11.994  0.00  0.00    +0.000 C 
ATOM      9  O   UNL     1      47.613   8.394  12.520  0.00  0.00    +0.000 OA
ENDBRANCH   2   9
BRANCH   6  10
ATOM     10  S   UNL     1      43.422   5.749  11.671  0.00  0.00    +0.000 S 
BRANCH  10  11
ATOM     11  C   UNL     1      43.536   4.388  10.465  0.00  0.00    +0.000 C 
ATOM     12  C   UNL     1      43.855   2.984  11.016  0.00  0.00    +0.000 C 
ATOM     13  N   UNL     1      44.962   2.845  10.035  0.00  0.00    +0.000 NA
ATOM     14  C   UNL     1      44.518   2.164   8.818  0.00  0.00    +0.000 C 
ATOM     15  C   UNL     1      44.957   4.312   9.836  0.00  0.00    +0.000 C 
ENDBRANCH  10  11
ENDBRANCH   6  10
ENDBRANCH   1   4
BRANCH   1  16
ATOM     16  C   UNL     1      47.201   4.423  16.421  0.00  0.00    +0.000 C 
BRANCH  16  17
ATOM     17  N   UNL     1      48.418   5.110  16.870  0.00  0.00    +0.000 N 
ATOM     18  C   UNL     1      49.460   4.192  17.124  0.00  0.00    +0.000 A 
ATOM     19  C   UNL     1      50.694   4.665  17.558  0.00  0.00    +0.000 A 
ATOM     20  C   UNL     1      51.728   3.758  17.797  0.00  0.00    +0.000 A 
ATOM     21  C   UNL     1      51.512   2.390  17.600  0.00  0.00    +0.000 A 
ATOM     22  C   UNL     1      50.259   2.010  17.164  0.00  0.00    +0.000 A 
ATOM     23  N   UNL     1      49.246   2.875  16.921  0.00  0.00    +0.000 NA
ATOM     24  H   UNL     1      48.272   5.674  17.698  0.00  0.00    +0.000 HD
BRANCH  21  25
ATOM     25  C   UNL     1      52.598   1.425  17.869  0.00  0.00    +0.000 C 
ATOM     26  N   UNL     1      52.279   0.145  18.234  0.00  0.00    +0.000 N 
ATOM     27  O   UNL     1      53.771   1.754  17.772  0.00  0.00    +0.000 OA
ATOM     28  H   UNL     1      51.351  -0.236  18.349  0.00  0.00    +0.000 HD
ATOM     29  H   UNL     1      53.059  -0.475  18.409  0.00  0.00    +0.000 HD
ENDBRANCH  21  25
ENDBRANCH  16  17
ENDBRANCH   1  16
TORSDOF 7
ENDMDL
MODEL 7
REMARK VINA RESULT:    -6.058      3.616      7.955
REMARK INTER + INTRA:          -9.470
REMARK INTER:                  -8.766
REMARK INTRA:                  -0.704
REMARK UNBOUND:                -0.933
REMARK  Name = 
REMARK  9 active torsions:
REMARK  status: ('A' for Active; 'I' for Inactive)
REMARK    1  A    between atoms: C_1  and  O_2
REMARK    2  A    between atoms: O_2  and  C_3
REMARK    3  A    between atoms: C_5  and  C_6
REMARK    4  A    between atoms: C_6  and  C_7
REMARK    5  A    between atoms: C_7  and  N_8
REMARK    6  A    between atoms: C_12  and  C_13
REMARK    7  A    between atoms: C_19  and  S_20
REMARK    8  A    between atoms: S_20  and  C_21
REMARK    9  A    between atoms: N_23  and  C_24
REMARK                            x       y       z     vdW  Elec       q    Type
REMARK                         _______ _______ _______ _____ _____    ______ ____
ROOT
ATOM      1  C   UNL     1      48.771   9.118  13.186  0.00  0.00    +0.000 C 
ENDROOT
BRANCH   1   4
ATOM      2  C   UNL     1      45.222   9.569  11.775  0.00  0.00    +0.000 A 
ATOM      3  C   UNL     1      46.545   9.833  12.119  0.00  0.00    +0.000 A 
ATOM      4  C   UNL     1      47.348   8.840  12.716  0.00  0.00    +0.000 A 
ATOM      5  C   UNL     1      46.797   7.553  12.923  0.00  0.00    +0.000 A 
ATOM      6  C   UNL     1      45.480   7.264  12.544  0.00  0.00    +0.000 A 
ATOM      7  C   UNL     1      44.702   8.291  11.991  0.00  0.00    +0.000 A 
BRANCH   2   9
ATOM      8  C   UNL     1      43.201   9.957  10.559  0.00  0.00    +0.000 C 
ATOM      9  O   UNL     1      44.330  10.469  11.255  0.00  0.00    +0.000 OA
ENDBRANCH   2   9
BRANCH   6  10
ATOM     10  S   UNL     1      44.638   5.731  12.909  0.00  0.00    +0.000 S 
BRANCH  10  11
ATOM     11  C   UNL     1      44.852   4.741  11.395  0.00  0.00    +0.000 C 
ATOM     12  C   UNL     1      43.626   4.596  10.470  0.00  0.00    +0.000 C 
ATOM     13  N   UNL     1      43.797   3.120  10.469  0.00  0.00    +0.000 NA
ATOM     14  C   UNL     1      44.594   2.672   9.326  0.00  0.00    +0.000 C 
ATOM     15  C   UNL     1      44.644   3.226  11.679  0.00  0.00    +0.000 C 
ENDBRANCH  10  11
ENDBRANCH   6  10
ENDBRANCH   1   4
BRANCH   1  16
ATOM     16  C   UNL     1      49.595   7.880  13.557  0.00  0.00    +0.000 C 
BRANCH  16  17
ATOM     17  N   UNL     1      50.006   7.884  14.967  0.00  0.00    +0.000 N 
ATOM     18  C   UNL     1      49.401   6.825  15.679  0.00  0.00    +0.000 A 
ATOM     19  C   UNL     1      49.676   6.670  17.033  0.00  0.00    +0.000 A 
ATOM     20  C   UNL     1      49.088   5.615  17.733  0.00  0.00    +0.000 A 
ATOM     21  C   UNL     1      48.231   4.732  17.070  0.00  0.00    +0.000 A 
ATOM     22  C   UNL     1      48.019   4.958  15.725  0.00  0.00    +0.000 A 
ATOM     23  N   UNL     1      48.584   5.971  15.026  0.00  0.00    +0.000 NA
ATOM     24  H   UNL     1      49.796   8.755  15.439  0.00  0.00    +0.000 HD
BRANCH  21  25
ATOM     25  C   UNL     1      47.593   3.625  17.810  0.00  0.00    +0.000 C 
ATOM     26  N   UNL     1      48.147   3.201  18.987  0.00  0.00    +0.000 N 
ATOM     27  O   UNL     1      46.583   3.083  17.385  0.00  0.00    +0.000 OA
ATOM     28  H   UNL     1      48.976   3.568  19.431  0.00  0.00    +0.000 HD
ATOM     29  H   UNL     1      47.673   2.438  19.454  0.00  0.00    +0.000 HD
ENDBRANCH  21  25
ENDBRANCH  16  17
ENDBRANCH   1  16
TORSDOF 7
ENDMDL
MODEL 8
REMARK VINA RESULT:    -6.051      2.615      6.504
REMARK INTER + INTRA:          -9.460
REMARK INTER:                  -8.771
REMARK INTRA:                  -0.690
REMARK UNBOUND:                -0.933
REMARK  Name = 
REMARK  9 active torsions:
REMARK  status: ('A' for Active; 'I' for Inactive)
REMARK    1  A    between atoms: C_1  and  O_2
REMARK    2  A    between atoms: O_2  and  C_3
REMARK    3  A    between atoms: C_5  and  C_6
REMARK    4  A    between atoms: C_6  and  C_7
REMARK    5  A    between atoms: C_7  and  N_8
REMARK    6  A    between atoms: C_12  and  C_13
REMARK    7  A    between atoms: C_19  and  S_20
REMARK    8  A    between atoms: S_20  and  C_21
REMARK    9  A    between atoms: N_23  and  C_24
REMARK                            x       y       z     vdW  Elec       q    Type
REMARK                         _______ _______ _______ _____ _____    ______ ____
ROOT
ATOM      1  C   UNL     1      45.401   7.983  12.485  0.00  0.00    +0.000 C 
ENDROOT
BRANCH   1   4
ATOM      2  C   UNL     1      46.192   4.325  13.369  0.00  0.00    +0.000 A 
ATOM      3  C   UNL     1      46.098   5.710  13.462  0.00  0.00    +0.000 A 
ATOM      4  C   UNL     1      45.446   6.460  12.461  0.00  0.00    +0.000 A 
ATOM      5  C   UNL     1      44.849   5.772  11.377  0.00  0.00    +0.000 A 
ATOM      6  C   UNL     1      44.902   4.375  11.294  0.00  0.00    +0.000 A 
ATOM      7  C   UNL     1      45.596   3.671  12.288  0.00  0.00    +0.000 A 
BRANCH   2   9
ATOM      8  C   UNL     1      47.250   4.046  15.494  0.00  0.00    +0.000 C 
ATOM      9  O   UNL     1      46.856   3.503  14.240  0.00  0.00    +0.000 OA
ENDBRANCH   2   9
BRANCH   6  10
ATOM     10  S   UNL     1      44.331   3.425   9.893  0.00  0.00    +0.000 S 
BRANCH  10  11
ATOM     11  C   UNL     1      45.848   3.099   8.937  0.00  0.00    +0.000 C 
ATOM     12  C   UNL     1      45.831   3.473   7.442  0.00  0.00    +0.000 C 
ATOM     13  N   UNL     1      46.305   2.109   7.090  0.00  0.00    +0.000 NA
ATOM     14  C   UNL     1      47.762   2.063   6.966  0.00  0.00    +0.000 C 
ATOM     15  C   UNL     1      45.885   1.630   8.427  0.00  0.00    +0.000 C 
ENDBRANCH  10  11
ENDBRANCH   6  10
ENDBRANCH   1   4
BRANCH   1  16
ATOM     16  C   UNL     1      46.435   8.658  13.393  0.00  0.00    +0.000 C 
BRANCH  16  17
ATOM     17  N   UNL     1      47.144   9.752  12.718  0.00  0.00    +0.000 N 
ATOM     18  C   UNL     1      48.398   9.324  12.229  0.00  0.00    +0.000 A 
ATOM     19  C   UNL     1      49.211  10.230  11.555  0.00  0.00    +0.000 A 
ATOM     20  C   UNL     1      50.445   9.803  11.061  0.00  0.00    +0.000 A 
ATOM     21  C   UNL     1      50.848   8.478  11.249  0.00  0.00    +0.000 A 
ATOM     22  C   UNL     1      49.977   7.647  11.923  0.00  0.00    +0.000 A 
ATOM     23  N   UNL     1      48.774   8.040  12.405  0.00  0.00    +0.000 NA
ATOM     24  H   UNL     1      47.284  10.560  13.311  0.00  0.00    +0.000 HD
BRANCH  21  25
ATOM     25  C   UNL     1      52.161   8.026  10.743  0.00  0.00    +0.000 C 
ATOM     26  N   UNL     1      53.130   7.656  11.635  0.00  0.00    +0.000 N 
ATOM     27  O   UNL     1      52.392   7.983   9.543  0.00  0.00    +0.000 OA
ATOM     28  H   UNL     1      53.055   7.655  12.642  0.00  0.00    +0.000 HD
ATOM     29  H   UNL     1      54.011   7.358  11.237  0.00  0.00    +0.000 HD
ENDBRANCH  21  25
ENDBRANCH  16  17
ENDBRANCH   1  16
TORSDOF 7
ENDMDL
MODEL 9
REMARK VINA RESULT:    -6.001      4.132      5.729
REMARK INTER + INTRA:          -9.389
REMARK INTER:                  -8.870
REMARK INTRA:                  -0.520
REMARK UNBOUND:                -0.933
REMARK  Name = 
REMARK  9 active torsions:
REMARK  status: ('A' for Active; 'I' for Inactive)
REMARK    1  A    between atoms: C_1  and  O_2
REMARK    2  A    between atoms: O_2  and  C_3
REMARK    3  A    between atoms: C_5  and  C_6
REMARK    4  A    between atoms: C_6  and  C_7
REMARK    5  A    between atoms: C_7  and  N_8
REMARK    6  A    between atoms: C_12  and  C_13
REMARK    7  A    between atoms: C_19  and  S_20
REMARK    8  A    between atoms: S_20  and  C_21
REMARK    9  A    between atoms: N_23  and  C_24
REMARK                            x       y       z     vdW  Elec       q    Type
REMARK                         _______ _______ _______ _____ _____    ______ ____
ROOT
ATOM      1  C   UNL     1      47.718   4.363  17.032  0.00  0.00    +0.000 C 
ENDROOT
BRANCH   1   4
ATOM      2  C   UNL     1      50.901   2.244  17.442  0.00  0.00    +0.000 A 
ATOM      3  C   UNL     1      49.613   2.628  17.079  0.00  0.00    +0.000 A 
ATOM      4  C   UNL     1      49.149   3.934  17.334  0.00  0.00    +0.000 A 
ATOM      5  C   UNL     1      50.033   4.865  17.930  0.00  0.00    +0.000 A 
ATOM      6  C   UNL     1      51.344   4.502  18.262  0.00  0.00    +0.000 A 
ATOM      7  C   UNL     1      51.752   3.182  18.030  0.00  0.00    +0.000 A 
BRANCH   2   9
ATOM      8  C   UNL     1      52.824   0.830  17.572  0.00  0.00    +0.000 C 
ATOM      9  O   UNL     1      51.435   0.990  17.307  0.00  0.00    +0.000 OA
ENDBRANCH   2   9
BRANCH   6  10
ATOM     10  S   UNL     1      52.482   5.544  19.165  0.00  0.00    +0.000 S 
BRANCH  10  11
ATOM     11  C   UNL     1      53.114   6.698  17.905  0.00  0.00    +0.000 C 
ATOM     12  C   UNL     1      52.151   7.794  17.408  0.00  0.00    +0.000 C 
ATOM     13  N   UNL     1      52.427   7.406  16.001  0.00  0.00    +0.000 NA
ATOM     14  C   UNL     1      53.499   8.216  15.421  0.00  0.00    +0.000 C 
ATOM     15  C   UNL     1      52.960   6.108  16.474  0.00  0.00    +0.000 C 
ENDBRANCH  10  11
ENDBRANCH   6  10
ENDBRANCH   1   4
BRANCH   1  16
ATOM     16  C   UNL     1      47.203   3.999  15.634  0.00  0.00    +0.000 C 
BRANCH  16  17
ATOM     17  N   UNL     1      46.774   5.177  14.872  0.00  0.00    +0.000 N 
ATOM     18  C   UNL     1      46.152   4.804  13.659  0.00  0.00    +0.000 A 
ATOM     19  C   UNL     1      45.677   5.793  12.805  0.00  0.00    +0.000 A 
ATOM     20  C   UNL     1      45.052   5.423  11.613  0.00  0.00    +0.000 A 
ATOM     21  C   UNL     1      44.912   4.070  11.292  0.00  0.00    +0.000 A 
ATOM     22  C   UNL     1      45.408   3.156  12.201  0.00  0.00    +0.000 A 
ATOM     23  N   UNL     1      46.012   3.494  13.364  0.00  0.00    +0.000 NA
ATOM     24  H   UNL     1      47.533   5.815  14.665  0.00  0.00    +0.000 HD
BRANCH  21  25
ATOM     25  C   UNL     1      44.267   3.674  10.024  0.00  0.00    +0.000 C 
ATOM     26  N   UNL     1      44.044   4.621   9.063  0.00  0.00    +0.000 N 
ATOM     27  O   UNL     1      43.927   2.516   9.825  0.00  0.00    +0.000 OA
ATOM     28  H   UNL     1      44.276   5.603   9.117  0.00  0.00    +0.000 HD
ATOM     29  H   UNL     1      43.597   4.300   8.214  0.00  0.00    +0.000 HD
ENDBRANCH  21  25
ENDBRANCH  16  17
ENDBRANCH   1  16
TORSDOF 7
ENDMDL
