MODEL 1
REMARK VINA RESULT:    -7.092      0.000      0.000
REMARK INTER + INTRA:         -10.133
REMARK INTER:                  -9.164
REMARK INTRA:                  -0.969
REMARK UNBOUND:                -0.969
REMARK  Name = 
REMARK  6 active torsions:
REMARK  status: ('A' for Active; 'I' for Inactive)
REMARK    1  A    between atoms: C_1  and  O_2
REMARK    2  A    between atoms: O_2  and  C_3
REMARK    3  A    between atoms: C_7  and  N_8
REMARK    4  A    between atoms: N_8  and  C_9
REMARK    5  A    between atoms: C_9  and  C_10
REMARK    6  A    between atoms: C_15  and  N_16
REMARK                            x       y       z     vdW  Elec       q    Type
REMARK                         _______ _______ _______ _____ _____    ______ ____
ROOT
ATOM      1  C   UNL     1      43.797   5.103  11.712  0.00  0.00    +0.000 C 
ATOM      2  C   UNL     1      42.451   5.425  12.351  0.00  0.00    +0.000 C 
ATOM      3  C   UNL     1      42.962   6.282  11.246  0.00  0.00    +0.000 C 
ENDROOT
BRANCH   1   4
ATOM      4  C   UNL     1      45.074   5.449  12.480  0.00  0.00    +0.000 A 
ATOM      5  C   UNL     1      45.576   4.619  13.494  0.00  0.00    +0.000 A 
ATOM      6  C   UNL     1      46.792   4.898  14.119  0.00  0.00    +0.000 A 
ATOM      7  C   UNL     1      47.526   6.017  13.734  0.00  0.00    +0.000 A 
ATOM      8  F   UNL     1      48.689   6.245  14.369  0.00  0.00    +0.000 F 
ATOM      9  C   UNL     1      47.069   6.899  12.746  0.00  0.00    +0.000 A 
ATOM     10  C   UNL     1      45.829   6.591  12.152  0.00  0.00    +0.000 A 
BRANCH   9  11
ATOM     11  N   UNL     1      47.774   8.000  12.288  0.00  0.00    +0.000 N 
ATOM     12  C   UNL     1      49.014   7.873  11.507  0.00  0.00    +0.000 C 
ATOM     13  C   UNL     1      50.225   8.379  12.299  0.00  0.00    +0.000 C 
ATOM     14  O   UNL     1      50.009   9.708  12.804  0.00  0.00    +0.000 OA
ATOM     15  C   UNL     1      48.871   9.721  13.681  0.00  0.00    +0.000 C 
ATOM     16  C   UNL     1      47.586   9.302  12.947  0.00  0.00    +0.000 C 
ENDBRANCH   9  11
ENDBRANCH   1   4
BRANCH   1  17
ATOM     17  N   UNL     1      43.823   3.787  11.035  0.00  0.00    +0.000 N 
ATOM     18  H   UNL     1      43.804   2.995  11.673  0.00  0.00    +0.000 HD
BRANCH  17  23
ATOM     19  C   UNL     1      45.847   1.999   8.457  0.00  0.00    +0.000 A 
ATOM     20  C   UNL     1      46.123   3.072   7.628  0.00  0.00    +0.000 A 
ATOM     21  N   UNL     1      45.680   4.335   7.865  0.00  0.00    +0.000 NA
ATOM     22  C   UNL     1      44.924   4.500   8.983  0.00  0.00    +0.000 A 
ATOM     23  C   UNL     1      44.575   3.488   9.882  0.00  0.00    +0.000 A 
ATOM     24  C   UNL     1      45.116   2.235   9.625  0.00  0.00    +0.000 A 
BRANCH  19  26
ATOM     25  C   UNL     1      47.385   0.822   7.140  0.00  0.00    +0.000 C 
ATOM     26  O   UNL     1      46.326   0.768   8.094  0.00  0.00    +0.000 OA
ENDBRANCH  19  26
ENDBRANCH  17  23
ENDBRANCH   1  17
TORSDOF 5
ENDMDL
MODEL 2
REMARK VINA RESULT:    -7.082      3.179      6.981
REMARK INTER + INTRA:         -10.122
REMARK INTER:                  -9.362
REMARK INTRA:                  -0.760
REMARK UNBOUND:                -0.969
REMARK  Name = 
REMARK  6 active torsions:
REMARK  status: ('A' for Active; 'I' for Inactive)
REMARK    1  A    between atoms: C_1  and  O_2
REMARK    2  A    between atoms: O_2  and  C_3
REMARK    3  A    between atoms: C_7  and  N_8
REMARK    4  A    between atoms: N_8  and  C_9
REMARK    5  A    between atoms: C_9  and  C_10
REMARK    6  A    between atoms: C_15  and  N_16
REMARK                            x       y       z     vdW  Elec       q    Type
REMARK                         _______ _______ _______ _____ _____    ______ ____
ROOT
ATOM      1  C   UNL     1      45.998   6.891  12.447  0.00  0.00    +0.000 C 
ATOM      2  C   UNL     1      47.303   6.811  13.233  0.00  0.00    +0.000 C 
ATOM      3  C   UNL     1      47.347   6.964  11.752  0.00  0.00    +0.000 C 
ENDROOT
BRANCH   1   4
ATOM      4  C   UNL     1      45.199   5.606  12.221  0.00  0.00    +0.000 A 
ATOM      5  C   UNL     1      44.363   5.070  13.213  0.00  0.00    +0.000 A 
ATOM      6  C   UNL     1      43.567   3.953  12.959  0.00  0.00    +0.000 A 
ATOM      7  C   UNL     1      43.596   3.354  11.702  0.00  0.00    +0.000 A 
ATOM      8  F   UNL     1      42.814   2.278  11.509  0.00  0.00    +0.000 F 
ATOM      9  C   UNL     1      44.426   3.825  10.677  0.00  0.00    +0.000 A 
ATOM     10  C   UNL     1      45.227   4.945  10.979  0.00  0.00    +0.000 A 
BRANCH   9  11
ATOM     11  N   UNL     1      44.465   3.304   9.394  0.00  0.00    +0.000 N 
ATOM     12  C   UNL     1      44.654   1.868   9.133  0.00  0.00    +0.000 C 
ATOM     13  C   UNL     1      46.008   1.596   8.469  0.00  0.00    +0.000 C 
ATOM     14  O   UNL     1      46.197   2.413   7.300  0.00  0.00    +0.000 OA
ATOM     15  C   UNL     1      46.154   3.803   7.660  0.00  0.00    +0.000 C 
ATOM     16  C   UNL     1      44.793   4.188   8.265  0.00  0.00    +0.000 C 
ENDBRANCH   9  11
ENDBRANCH   1   4
BRANCH   1  17
ATOM     17  N   UNL     1      45.179   8.074  12.793  0.00  0.00    +0.000 N 
ATOM     18  H   UNL     1      44.333   7.852  13.313  0.00  0.00    +0.000 HD
BRANCH  17  23
ATOM     19  C   UNL     1      43.797  10.402  10.222  0.00  0.00    +0.000 A 
ATOM     20  C   UNL     1      44.762  11.392  10.298  0.00  0.00    +0.000 A 
ATOM     21  N   UNL     1      45.825  11.339  11.142  0.00  0.00    +0.000 NA
ATOM     22  C   UNL     1      45.897  10.239  11.939  0.00  0.00    +0.000 A 
ATOM     23  C   UNL     1      44.976   9.188  11.954  0.00  0.00    +0.000 A 
ATOM     24  C   UNL     1      43.951   9.265  11.020  0.00  0.00    +0.000 A 
BRANCH  19  26
ATOM     25  C   UNL     1      41.511  10.854   9.991  0.00  0.00    +0.000 C 
ATOM     26  O   UNL     1      42.757  10.587   9.351  0.00  0.00    +0.000 OA
ENDBRANCH  19  26
ENDBRANCH  17  23
ENDBRANCH   1  17
TORSDOF 5
ENDMDL
MODEL 3
REMARK VINA RESULT:    -6.740      2.554      3.669
REMARK INTER + INTRA:          -9.679
REMARK INTER:                  -8.926
REMARK INTRA:                  -0.752
REMARK UNBOUND:                -0.969
REMARK  Name = 
REMARK  6 active torsions:
REMARK  status: ('A' for Active; 'I' for Inactive)
REMARK    1  A    between atoms: C_1  and  O_2
REMARK    2  A    between atoms: O_2  and  C_3
REMARK    3  A    between atoms: C_7  and  N_8
REMARK    4  A    between atoms: N_8  and  C_9
REMARK    5  A    between atoms: C_9  and  C_10
REMARK    6  A    between atoms: C_15  and  N_16
REMARK                            x       y       z     vdW  Elec       q    Type
REMARK                         _______ _______ _______ _____ _____    ______ ____
ROOT
ATOM      1  C   UNL     1      44.243   4.876  12.190  0.00  0.00    +0.000 C 
ATOM      2  C   UNL     1      42.920   5.081  12.920  0.00  0.00    +0.000 C 
ATOM      3  C   UNL     1      43.361   6.078  11.905  0.00  0.00    +0.000 C 
ENDROOT
BRANCH   1   4
ATOM      4  C   UNL     1      45.545   5.164  12.939  0.00  0.00    +0.000 A 
ATOM      5  C   UNL     1      46.410   6.199  12.549  0.00  0.00    +0.000 A 
ATOM      6  C   UNL     1      47.544   6.512  13.299  0.00  0.00    +0.000 A 
ATOM      7  C   UNL     1      47.830   5.791  14.455  0.00  0.00    +0.000 A 
ATOM      8  F   UNL     1      48.936   6.128  15.140  0.00  0.00    +0.000 F 
ATOM      9  C   UNL     1      47.021   4.731  14.885  0.00  0.00    +0.000 A 
ATOM     10  C   UNL     1      45.895   4.436  14.091  0.00  0.00    +0.000 A 
BRANCH   9  11
ATOM     11  N   UNL     1      47.226   4.007  16.049  0.00  0.00    +0.000 N 
ATOM     12  C   UNL     1      47.042   4.595  17.384  0.00  0.00    +0.000 C 
ATOM     13  C   UNL     1      48.378   4.719  18.127  0.00  0.00    +0.000 C 
ATOM     14  O   UNL     1      49.086   3.467  18.152  0.00  0.00    +0.000 OA
ATOM     15  C   UNL     1      49.365   3.033  16.812  0.00  0.00    +0.000 C 
ATOM     16  C   UNL     1      48.072   2.804  16.011  0.00  0.00    +0.000 C 
ENDBRANCH   9  11
ENDBRANCH   1   4
BRANCH   1  17
ATOM     17  N   UNL     1      44.268   3.651  11.359  0.00  0.00    +0.000 N 
ATOM     18  H   UNL     1      44.390   2.794  11.893  0.00  0.00    +0.000 HD
BRANCH  17  23
ATOM     19  C   UNL     1      45.971   2.321   8.314  0.00  0.00    +0.000 A 
ATOM     20  C   UNL     1      46.147   3.515   7.636  0.00  0.00    +0.000 A 
ATOM     21  N   UNL     1      45.736   4.717   8.117  0.00  0.00    +0.000 NA
ATOM     22  C   UNL     1      45.118   4.694   9.329  0.00  0.00    +0.000 A 
ATOM     23  C   UNL     1      44.878   3.548  10.093  0.00  0.00    +0.000 A 
ATOM     24  C   UNL     1      45.384   2.360   9.582  0.00  0.00    +0.000 A 
BRANCH  19  26
ATOM     25  C   UNL     1      47.542   1.354   6.872  0.00  0.00    +0.000 C 
ATOM     26  O   UNL     1      46.403   1.170   7.710  0.00  0.00    +0.000 OA
ENDBRANCH  19  26
ENDBRANCH  17  23
ENDBRANCH   1  17
TORSDOF 5
ENDMDL
MODEL 4
REMARK VINA RESULT:    -6.581      1.435      2.139
REMARK INTER + INTRA:          -9.474
REMARK INTER:                  -9.132
REMARK INTRA:                  -0.342
REMARK UNBOUND:                -0.969
REMARK  Name = 
REMARK  6 active torsions:
REMARK  status: ('A' for Active; 'I' for Inactive)
REMARK    1  A    between atoms: C_1  and  O_2
REMARK    2  A    between atoms: O_2  and  C_3
REMARK    3  A    between atoms: C_7  and  N_8
REMARK    4  A    between atoms: N_8  and  C_9
REMARK    5  A    between atoms: C_9  and  C_10
REMARK    6  A    between atoms: C_15  and  N_16
REMARK                            x       y       z     vdW  Elec       q    Type
REMARK                         _______ _______ _______ _____ _____    ______ ____
ROOT
ATOM      1  C   UNL     1      44.007   5.079  11.664  0.00  0.00    +0.000 C 
ATOM      2  C   UNL     1      44.223   3.900  12.607  0.00  0.00    +0.000 C 
ATOM      3  C   UNL     1      43.074   4.819  12.833  0.00  0.00    +0.000 C 
ENDROOT
BRANCH   1   4
ATOM      4  C   UNL     1      44.920   6.299  11.796  0.00  0.00    +0.000 A 
ATOM      5  C   UNL     1      44.446   7.604  11.586  0.00  0.00    +0.000 A 
ATOM      6  C   UNL     1      45.266   8.711  11.803  0.00  0.00    +0.000 A 
ATOM      7  C   UNL     1      46.576   8.528  12.237  0.00  0.00    +0.000 A 
ATOM      8  F   UNL     1      47.326   9.628  12.428  0.00  0.00    +0.000 F 
ATOM      9  C   UNL     1      47.117   7.252  12.441  0.00  0.00    +0.000 A 
ATOM     10  C   UNL     1      46.263   6.159  12.194  0.00  0.00    +0.000 A 
BRANCH   9  11
ATOM     11  N   UNL     1      48.395   7.006  12.916  0.00  0.00    +0.000 N 
ATOM     12  C   UNL     1      48.701   6.928  14.352  0.00  0.00    +0.000 C 
ATOM     13  C   UNL     1      49.580   8.102  14.800  0.00  0.00    +0.000 C 
ATOM     14  O   UNL     1      50.754   8.225  13.978  0.00  0.00    +0.000 OA
ATOM     15  C   UNL     1      50.375   8.453  12.611  0.00  0.00    +0.000 C 
ATOM     16  C   UNL     1      49.552   7.283  12.049  0.00  0.00    +0.000 C 
ENDBRANCH   9  11
ENDBRANCH   1   4
BRANCH   1  17
ATOM     17  N   UNL     1      43.723   4.668  10.270  0.00  0.00    +0.000 N 
ATOM     18  H   UNL     1      42.786   4.296  10.133  0.00  0.00    +0.000 HD
BRANCH  17  23
ATOM     19  C   UNL     1      45.793   2.103   8.518  0.00  0.00    +0.000 A 
ATOM     20  C   UNL     1      46.565   2.952   7.744  0.00  0.00    +0.000 A 
ATOM     21  N   UNL     1      46.439   4.304   7.762  0.00  0.00    +0.000 NA
ATOM     22  C   UNL     1      45.486   4.802   8.596  0.00  0.00    +0.000 A 
ATOM     23  C   UNL     1      44.645   4.039   9.412  0.00  0.00    +0.000 A 
ATOM     24  C   UNL     1      44.870   2.668   9.401  0.00  0.00    +0.000 A 
BRANCH  19  26
ATOM     25  C   UNL     1      46.983   0.413   7.417  0.00  0.00    +0.000 C 
ATOM     26  O   UNL     1      45.996   0.755   8.388  0.00  0.00    +0.000 OA
ENDBRANCH  19  26
ENDBRANCH  17  23
ENDBRANCH   1  17
TORSDOF 5
ENDMDL
MODEL 5
REMARK VINA RESULT:    -6.463      2.218      7.057
REMARK INTER + INTRA:          -9.322
REMARK INTER:                  -8.678
REMARK INTRA:                  -0.643
REMARK UNBOUND:                -0.969
REMARK  Name = 
REMARK  6 active torsions:
REMARK  status: ('A' for Active; 'I' for Inactive)
REMARK    1  A    between atoms: C_1  and  O_2
REMARK    2  A    between atoms: O_2  and  C_3
REMARK    3  A    between atoms: C_7  and  N_8
REMARK    4  A    between atoms: N_8  and  C_9
REMARK    5  A    between atoms: C_9  and  C_10
REMARK    6  A    between atoms: C_15  and  N_16
REMARK                            x       y       z     vdW  Elec       q    Type
REMARK                         _______ _______ _______ _____ _____    ______ ____
ROOT
ATOM      1  C   UNL     1      45.828   6.960  12.016  0.00  0.00    +0.000 C 
ATOM      2  C   UNL     1      45.165   8.197  11.419  0.00  0.00    +0.000 C 
ATOM      3  C   UNL     1      45.145   7.994  12.894  0.00  0.00    +0.000 C 
ENDROOT
BRANCH   1   4
ATOM      4  C   UNL     1      45.114   5.613  11.890  0.00  0.00    +0.000 A 
ATOM      5  C   UNL     1      44.336   5.087  12.934  0.00  0.00    +0.000 A 
ATOM      6  C   UNL     1      43.614   3.905  12.769  0.00  0.00    +0.000 A 
ATOM      7  C   UNL     1      43.659   3.230  11.552  0.00  0.00    +0.000 A 
ATOM      8  F   UNL     1      42.949   2.094  11.444  0.00  0.00    +0.000 F 
ATOM      9  C   UNL     1      44.435   3.689  10.479  0.00  0.00    +0.000 A 
ATOM     10  C   UNL     1      45.163   4.877  10.691  0.00  0.00    +0.000 A 
BRANCH   9  11
ATOM     11  N   UNL     1      44.484   3.091   9.231  0.00  0.00    +0.000 N 
ATOM     12  C   UNL     1      44.819   1.670   9.052  0.00  0.00    +0.000 C 
ATOM     13  C   UNL     1      46.171   1.500   8.347  0.00  0.00    +0.000 C 
ATOM     14  O   UNL     1      46.226   2.253   7.123  0.00  0.00    +0.000 OA
ATOM     15  C   UNL     1      46.044   3.651   7.397  0.00  0.00    +0.000 C 
ATOM     16  C   UNL     1      44.672   3.928   8.036  0.00  0.00    +0.000 C 
ENDBRANCH   9  11
ENDBRANCH   1   4
BRANCH   1  17
ATOM     17  N   UNL     1      47.289   6.908  11.781  0.00  0.00    +0.000 N 
ATOM     18  H   UNL     1      47.576   6.176  11.137  0.00  0.00    +0.000 HD
BRANCH  17  23
ATOM     19  C   UNL     1      50.332   8.104  13.584  0.00  0.00    +0.000 A 
ATOM     20  C   UNL     1      50.176   7.384  14.756  0.00  0.00    +0.000 A 
ATOM     21  N   UNL     1      49.134   6.542  14.984  0.00  0.00    +0.000 NA
ATOM     22  C   UNL     1      48.220   6.441  13.982  0.00  0.00    +0.000 A 
ATOM     23  C   UNL     1      48.272   7.127  12.766  0.00  0.00    +0.000 A 
ATOM     24  C   UNL     1      49.396   7.918  12.563  0.00  0.00    +0.000 A 
BRANCH  19  26
ATOM     25  C   UNL     1      52.606   8.412  14.051  0.00  0.00    +0.000 C 
ATOM     26  O   UNL     1      51.409   8.943  13.486  0.00  0.00    +0.000 OA
ENDBRANCH  19  26
ENDBRANCH  17  23
ENDBRANCH   1  17
TORSDOF 5
ENDMDL
MODEL 6
REMARK VINA RESULT:    -6.452      2.454      6.996
REMARK INTER + INTRA:          -9.308
REMARK INTER:                  -8.592
REMARK INTRA:                  -0.716
REMARK UNBOUND:                -0.969
REMARK  Name = 
REMARK  6 active torsions:
REMARK  status: ('A' for Active; 'I' for Inactive)
REMARK    1  A    between atoms: C_1  and  O_2
REMARK    2  A    between atoms: O_2  and  C_3
REMARK    3  A    between atoms: C_7  and  N_8
REMARK    4  A    between atoms: N_8  and  C_9
REMARK    5  A    between atoms: C_9  and  C_10
REMARK    6  A    between atoms: C_15  and  N_16
REMARK                            x       y       z     vdW  Elec       q    Type
REMARK                         _______ _______ _______ _____ _____    ______ ____
ROOT
ATOM      1  C   UNL     1      45.803   7.007  11.984  0.00  0.00    +0.000 C 
ATOM      2  C   UNL     1      45.129   8.233  11.378  0.00  0.00    +0.000 C 
ATOM      3  C   UNL     1      45.115   8.043  12.855  0.00  0.00    +0.000 C 
ENDROOT
BRANCH   1   4
ATOM      4  C   UNL     1      45.098   5.653  11.871  0.00  0.00    +0.000 A 
ATOM      5  C   UNL     1      44.333   5.127  12.924  0.00  0.00    +0.000 A 
ATOM      6  C   UNL     1      43.618   3.939  12.772  0.00  0.00    +0.000 A 
ATOM      7  C   UNL     1      43.658   3.258  11.559  0.00  0.00    +0.000 A 
ATOM      8  F   UNL     1      42.955   2.116  11.464  0.00  0.00    +0.000 F 
ATOM      9  C   UNL     1      44.421   3.717  10.477  0.00  0.00    +0.000 A 
ATOM     10  C   UNL     1      45.141   4.911  10.676  0.00  0.00    +0.000 A 
BRANCH   9  11
ATOM     11  N   UNL     1      44.464   3.112   9.231  0.00  0.00    +0.000 N 
ATOM     12  C   UNL     1      44.775   1.684   9.060  0.00  0.00    +0.000 C 
ATOM     13  C   UNL     1      46.126   1.489   8.361  0.00  0.00    +0.000 C 
ATOM     14  O   UNL     1      46.198   2.234   7.133  0.00  0.00    +0.000 OA
ATOM     15  C   UNL     1      46.038   3.637   7.401  0.00  0.00    +0.000 C 
ATOM     16  C   UNL     1      44.670   3.940   8.033  0.00  0.00    +0.000 C 
ENDBRANCH   9  11
ENDBRANCH   1   4
BRANCH   1  17
ATOM     17  N   UNL     1      47.263   6.963  11.744  0.00  0.00    +0.000 N 
ATOM     18  H   UNL     1      47.545   6.280  11.045  0.00  0.00    +0.000 HD
BRANCH  17  23
ATOM     19  C   UNL     1      49.127   6.757  14.973  0.00  0.00    +0.000 A 
ATOM     20  C   UNL     1      50.220   7.534  14.631  0.00  0.00    +0.000 A 
ATOM     21  N   UNL     1      50.378   8.111  13.411  0.00  0.00    +0.000 NA
ATOM     22  C   UNL     1      49.387   7.876  12.510  0.00  0.00    +0.000 A 
ATOM     23  C   UNL     1      48.248   7.100  12.742  0.00  0.00    +0.000 A 
ATOM     24  C   UNL     1      48.109   6.596  14.029  0.00  0.00    +0.000 A 
BRANCH  19  26
ATOM     25  C   UNL     1      49.009   7.168  17.275  0.00  0.00    +0.000 C 
ATOM     26  O   UNL     1      49.098   6.206  16.226  0.00  0.00    +0.000 OA
ENDBRANCH  19  26
ENDBRANCH  17  23
ENDBRANCH   1  17
TORSDOF 5
ENDMDL
MODEL 7
REMARK VINA RESULT:    -6.082      2.990      7.540
REMARK INTER + INTRA:          -8.829
REMARK INTER:                  -7.652
REMARK INTRA:                  -1.177
REMARK UNBOUND:                -0.969
REMARK  Name = 
REMARK  6 active torsions:
REMARK  status: ('A' for Active; 'I' for Inactive)
REMARK    1  A    between atoms: C_1  and  O_2
REMARK    2  A    between atoms: O_2  and  C_3
REMARK    3  A    between atoms: C_7  and  N_8
REMARK    4  A    between atoms: N_8  and  C_9
REMARK    5  A    between atoms: C_9  and  C_10
REMARK    6  A    between atoms: C_15  and  N_16
REMARK                            x       y       z     vdW  Elec       q    Type
REMARK                         _______ _______ _______ _____ _____    ______ ____
ROOT
ATOM      1  C   UNL     1      49.316   7.967  12.622  0.00  0.00    +0.000 C 
ATOM      2  C   UNL     1      50.229   7.963  11.400  0.00  0.00    +0.000 C 
ATOM      3  C   UNL     1      49.900   9.254  12.067  0.00  0.00    +0.000 C 
ENDROOT
BRANCH   1   4
ATOM      4  C   UNL     1      47.813   7.769  12.415  0.00  0.00    +0.000 A 
ATOM      5  C   UNL     1      46.924   8.854  12.367  0.00  0.00    +0.000 A 
ATOM      6  C   UNL     1      45.572   8.666  12.081  0.00  0.00    +0.000 A 
ATOM      7  C   UNL     1      45.088   7.383  11.837  0.00  0.00    +0.000 A 
ATOM      8  F   UNL     1      43.777   7.254  11.570  0.00  0.00    +0.000 F 
ATOM      9  C   UNL     1      45.918   6.256  11.893  0.00  0.00    +0.000 A 
ATOM     10  C   UNL     1      47.274   6.487  12.202  0.00  0.00    +0.000 A 
BRANCH   9  11
ATOM     11  N   UNL     1      45.508   4.962  11.615  0.00  0.00    +0.000 N 
ATOM     12  C   UNL     1      45.137   4.528  10.260  0.00  0.00    +0.000 C 
ATOM     13  C   UNL     1      43.639   4.214  10.166  0.00  0.00    +0.000 C 
ATOM     14  O   UNL     1      43.229   3.288  11.188  0.00  0.00    +0.000 OA
ATOM     15  C   UNL     1      43.483   3.847  12.487  0.00  0.00    +0.000 C 
ATOM     16  C   UNL     1      44.980   4.123  12.702  0.00  0.00    +0.000 C 
ENDBRANCH   9  11
ENDBRANCH   1   4
BRANCH   1  17
ATOM     17  N   UNL     1      49.881   7.231  13.776  0.00  0.00    +0.000 N 
ATOM     18  H   UNL     1      50.140   6.270  13.565  0.00  0.00    +0.000 HD
BRANCH  17  23
ATOM     19  C   UNL     1      48.499   6.474  17.161  0.00  0.00    +0.000 A 
ATOM     20  C   UNL     1      48.494   7.759  17.675  0.00  0.00    +0.000 A 
ATOM     21  N   UNL     1      48.920   8.846  16.981  0.00  0.00    +0.000 NA
ATOM     22  C   UNL     1      49.373   8.607  15.721  0.00  0.00    +0.000 A 
ATOM     23  C   UNL     1      49.434   7.352  15.106  0.00  0.00    +0.000 A 
ATOM     24  C   UNL     1      48.918   6.292  15.840  0.00  0.00    +0.000 A 
BRANCH  19  26
ATOM     25  C   UNL     1      47.343   4.441  17.285  0.00  0.00    +0.000 C 
ATOM     26  O   UNL     1      48.071   5.457  17.972  0.00  0.00    +0.000 OA
ENDBRANCH  19  26
ENDBRANCH  17  23
ENDBRANCH   1  17
TORSDOF 5
ENDMDL
MODEL 8
REMARK VINA RESULT:    -6.030      3.388      5.352
REMARK INTER + INTRA:          -8.761
REMARK INTER:                  -8.142
REMARK INTRA:                  -0.619
REMARK UNBOUND:                -0.969
REMARK  Name = 
REMARK  6 active torsions:
REMARK  status: ('A' for Active; 'I' for Inactive)
REMARK    1  A    between atoms: C_1  and  O_2
REMARK    2  A    between atoms: O_2  and  C_3
REMARK    3  A    between atoms: C_7  and  N_8
REMARK    4  A    between atoms: N_8  and  C_9
REMARK    5  A    between atoms: C_9  and  C_10
REMARK    6  A    between atoms: C_15  and  N_16
REMARK                            x       y       z     vdW  Elec       q    Type
REMARK                         _______ _______ _______ _____ _____    ______ ____
ROOT
ATOM      1  C   UNL     1      47.683   7.354  13.036  0.00  0.00    +0.000 C 
ATOM      2  C   UNL     1      47.572   8.697  12.321  0.00  0.00    +0.000 C 
ATOM      3  C   UNL     1      48.225   7.550  11.631  0.00  0.00    +0.000 C 
ENDROOT
BRANCH   1   4
ATOM      4  C   UNL     1      48.729   7.198  14.141  0.00  0.00    +0.000 A 
ATOM      5  C   UNL     1      49.874   8.007  14.197  0.00  0.00    +0.000 A 
ATOM      6  C   UNL     1      50.769   7.918  15.263  0.00  0.00    +0.000 A 
ATOM      7  C   UNL     1      50.529   7.013  16.293  0.00  0.00    +0.000 A 
ATOM      8  F   UNL     1      51.423   6.962  17.296  0.00  0.00    +0.000 F 
ATOM      9  C   UNL     1      49.418   6.159  16.286  0.00  0.00    +0.000 A 
ATOM     10  C   UNL     1      48.547   6.269  15.183  0.00  0.00    +0.000 A 
BRANCH   9  11
ATOM     11  N   UNL     1      49.099   5.273  17.302  0.00  0.00    +0.000 N 
ATOM     12  C   UNL     1      49.903   4.074  17.582  0.00  0.00    +0.000 C 
ATOM     13  C   UNL     1      49.128   2.793  17.252  0.00  0.00    +0.000 C 
ATOM     14  O   UNL     1      47.841   2.774  17.896  0.00  0.00    +0.000 OA
ATOM     15  C   UNL     1      47.055   3.893  17.455  0.00  0.00    +0.000 C 
ATOM     16  C   UNL     1      47.721   5.231  17.817  0.00  0.00    +0.000 C 
ENDBRANCH   9  11
ENDBRANCH   1   4
BRANCH   1  17
ATOM     17  N   UNL     1      46.369   6.743  13.338  0.00  0.00    +0.000 N 
ATOM     18  H   UNL     1      46.131   6.747  14.328  0.00  0.00    +0.000 HD
BRANCH  17  23
ATOM     19  C   UNL     1      44.571   4.491  10.965  0.00  0.00    +0.000 A 
ATOM     20  C   UNL     1      44.794   3.288  11.611  0.00  0.00    +0.000 A 
ATOM     21  N   UNL     1      45.499   3.177  12.766  0.00  0.00    +0.000 NA
ATOM     22  C   UNL     1      45.998   4.337  13.272  0.00  0.00    +0.000 A 
ATOM     23  C   UNL     1      45.844   5.603  12.699  0.00  0.00    +0.000 A 
ATOM     24  C   UNL     1      45.055   5.660  11.558  0.00  0.00    +0.000 A 
BRANCH  19  26
ATOM     25  C   UNL     1      44.646   4.064   8.663  0.00  0.00    +0.000 C 
ATOM     26  O   UNL     1      43.869   4.468   9.789  0.00  0.00    +0.000 OA
ENDBRANCH  19  26
ENDBRANCH  17  23
ENDBRANCH   1  17
TORSDOF 5
ENDMDL
MODEL 9
REMARK VINA RESULT:    -5.989      3.263      7.474
REMARK INTER + INTRA:          -8.708
REMARK INTER:                  -7.910
REMARK INTRA:                  -0.799
REMARK UNBOUND:                -0.969
REMARK  Name = 
REMARK  6 active torsions:
REMARK  status: ('A' for Active; 'I' for Inactive)
REMARK    1  A    between atoms: C_1  and  O_2
REMARK    2  A    between atoms: O_2  and  C_3
REMARK    3  A    between atoms: C_7  and  N_8
REMARK    4  A    between atoms: N_8  and  C_9
REMARK    5  A    between atoms: C_9  and  C_10
REMARK    6  A    between atoms: C_15  and  N_16
REMARK                            x       y       z     vdW  Elec       q    Type
REMARK                         _______ _______ _______ _____ _____    ______ ____
ROOT
ATOM      1  C   UNL     1      48.000   6.685  13.309  0.00  0.00    +0.000 C 
ATOM      2  C   UNL     1      49.261   7.036  12.526  0.00  0.00    +0.000 C 
ATOM      3  C   UNL     1      48.888   7.848  13.718  0.00  0.00    +0.000 C 
ENDROOT
BRANCH   1   4
ATOM      4  C   UNL     1      46.641   7.058  12.715  0.00  0.00    +0.000 A 
ATOM      5  C   UNL     1      46.211   8.392  12.629  0.00  0.00    +0.000 A 
ATOM      6  C   UNL     1      45.013   8.724  11.997  0.00  0.00    +0.000 A 
ATOM      7  C   UNL     1      44.224   7.722  11.439  0.00  0.00    +0.000 A 
ATOM      8  F   UNL     1      43.076   8.093  10.845  0.00  0.00    +0.000 F 
ATOM      9  C   UNL     1      44.584   6.369  11.512  0.00  0.00    +0.000 A 
ATOM     10  C   UNL     1      45.793   6.074  12.173  0.00  0.00    +0.000 A 
BRANCH   9  11
ATOM     11  N   UNL     1      43.867   5.332  10.937  0.00  0.00    +0.000 N 
ATOM     12  C   UNL     1      42.870   4.553  11.687  0.00  0.00    +0.000 C 
ATOM     13  C   UNL     1      43.335   3.107  11.895  0.00  0.00    +0.000 C 
ATOM     14  O   UNL     1      43.715   2.491  10.652  0.00  0.00    +0.000 OA
ATOM     15  C   UNL     1      44.798   3.221  10.054  0.00  0.00    +0.000 C 
ATOM     16  C   UNL     1      44.396   4.670   9.734  0.00  0.00    +0.000 C 
ENDBRANCH   9  11
ENDBRANCH   1   4
BRANCH   1  17
ATOM     17  N   UNL     1      48.053   5.344  13.933  0.00  0.00    +0.000 N 
ATOM     18  H   UNL     1      47.652   4.606  13.358  0.00  0.00    +0.000 HD
BRANCH  17  23
ATOM     19  C   UNL     1      48.254   5.464  17.659  0.00  0.00    +0.000 A 
ATOM     20  C   UNL     1      47.428   4.391  17.946  0.00  0.00    +0.000 A 
ATOM     21  N   UNL     1      46.812   3.643  16.994  0.00  0.00    +0.000 NA
ATOM     22  C   UNL     1      47.045   4.012  15.705  0.00  0.00    +0.000 A 
ATOM     23  C   UNL     1      47.849   5.082  15.302  0.00  0.00    +0.000 A 
ATOM     24  C   UNL     1      48.507   5.764  16.317  0.00  0.00    +0.000 A 
BRANCH  19  26
ATOM     25  C   UNL     1      50.010   6.830  18.391  0.00  0.00    +0.000 C 
ATOM     26  O   UNL     1      48.793   6.157  18.709  0.00  0.00    +0.000 OA
ENDBRANCH  19  26
ENDBRANCH  17  23
ENDBRANCH   1  17
TORSDOF 5
ENDMDL
