MODEL 1
REMARK VINA RESULT:    -8.263      0.000      0.000
REMARK INTER + INTRA:         -12.242
REMARK INTER:                 -11.162
REMARK INTRA:                  -1.081
REMARK UNBOUND:                -1.081
REMARK  Name = 
REMARK  7 active torsions:
REMARK  status: ('A' for Active; 'I' for Inactive)
REMARK    1  A    between atoms: C_1  and  C_2
REMARK    2  A    between atoms: C_6  and  C_7
REMARK    3  A    between atoms: N_9  and  C_10
REMARK    4  A    between atoms: C_10  and  C_11
REMARK    5  A    between atoms: C_14  and  C_15
REMARK    6  A    between atoms: C_15  and  N_16
REMARK    7  A    between atoms: C_17  and  C_19
REMARK                            x       y       z     vdW  Elec       q    Type
REMARK                         _______ _______ _______ _____ _____    ______ ____
ROOT
ATOM      1  C   UNL     1      45.030   6.282  11.352  0.00  0.00    +0.000 A 
ATOM      2  C   UNL     1      46.227   5.733  11.830  0.00  0.00    +0.000 A 
ATOM      3  C   UNL     1      47.067   6.467  12.679  0.00  0.00    +0.000 A 
ATOM      4  C   UNL     1      46.716   7.760  13.088  0.00  0.00    +0.000 A 
ATOM      5  C   UNL     1      45.524   8.313  12.599  0.00  0.00    +0.000 A 
ATOM      6  C   UNL     1      44.683   7.579  11.753  0.00  0.00    +0.000 A 
ENDROOT
BRANCH   1   7
ATOM      7  C   UNL     1      44.157   5.505  10.399  0.00  0.00    +0.000 C 
BRANCH   7  10
ATOM      8  C   UNL     1      44.700   3.307   9.459  0.00  0.00    +0.000 C 
ATOM      9  O   UNL     1      43.905   2.727  10.193  0.00  0.00    +0.000 OA
ATOM     10  N   UNL     1      44.895   4.675   9.484  0.00  0.00    +0.000 N 
ATOM     11  H   UNL     1      45.586   5.063   8.849  0.00  0.00    +0.000 HD
BRANCH   8  17
ATOM     12  C   UNL     1      47.260   3.145   5.151  0.00  0.00    +0.000 C 
ATOM     13  C   UNL     1      46.754   2.481   6.396  0.00  0.00    +0.000 A 
ATOM     14  C   UNL     1      47.034   1.142   6.674  0.00  0.00    +0.000 A 
ATOM     15  C   UNL     1      46.538   0.582   7.844  0.00  0.00    +0.000 A 
ATOM     16  N   UNL     1      45.787   1.247   8.745  0.00  0.00    +0.000 NA
ATOM     17  C   UNL     1      45.526   2.552   8.459  0.00  0.00    +0.000 A 
ATOM     18  C   UNL     1      45.979   3.200   7.311  0.00  0.00    +0.000 A 
ENDBRANCH   8  17
ENDBRANCH   7  10
ENDBRANCH   1   7
BRANCH   4  19
ATOM     19  C   UNL     1      47.594   8.555  14.023  0.00  0.00    +0.000 C 
BRANCH  19  20
ATOM     20  N   UNL     1      47.956   7.802  15.198  0.00  0.00    +0.000 N 
ATOM     21  C   UNL     1      49.231   7.326  15.373  0.00  0.00    +0.000 C 
ATOM     22  O   UNL     1      50.128   7.546  14.564  0.00  0.00    +0.000 OA
ATOM     23  H   UNL     1      47.195   7.385  15.726  0.00  0.00    +0.000 HD
BRANCH  21  24
ATOM     24  C   UNL     1      49.486   6.582  16.616  0.00  0.00    +0.000 A 
ATOM     25  C   UNL     1      50.393   7.076  17.545  0.00  0.00    +0.000 A 
ATOM     26  S   UNL     1      50.524   6.113  18.948  0.00  0.00    +0.000 S 
ATOM     27  C   UNL     1      49.415   4.977  18.338  0.00  0.00    +0.000 A 
ATOM     28  N   UNL     1      49.087   3.861  19.049  0.00  0.00    +0.000 NA
ATOM     29  C   UNL     1      48.254   3.076  18.450  0.00  0.00    +0.000 A 
ATOM     30  N   UNL     1      47.707   3.310  17.216  0.00  0.00    +0.000 N 
ATOM     31  C   UNL     1      47.986   4.436  16.480  0.00  0.00    +0.000 A 
ATOM     32  O   UNL     1      47.434   4.636  15.396  0.00  0.00    +0.000 OA
ATOM     33  C   UNL     1      48.931   5.343  17.096  0.00  0.00    +0.000 A 
ATOM     34  H   UNL     1      47.047   2.663  16.809  0.00  0.00    +0.000 HD
ENDBRANCH  21  24
ENDBRANCH  19  20
ENDBRANCH   4  19
TORSDOF 6
ENDMDL
MODEL 2
REMARK VINA RESULT:    -8.011      0.842      1.561
REMARK INTER + INTRA:         -11.902
REMARK INTER:                 -10.874
REMARK INTRA:                  -1.028
REMARK UNBOUND:                -1.081
REMARK  Name = 
REMARK  7 active torsions:
REMARK  status: ('A' for Active; 'I' for Inactive)
REMARK    1  A    between atoms: C_1  and  C_2
REMARK    2  A    between atoms: C_6  and  C_7
REMARK    3  A    between atoms: N_9  and  C_10
REMARK    4  A    between atoms: C_10  and  C_11
REMARK    5  A    between atoms: C_14  and  C_15
REMARK    6  A    between atoms: C_15  and  N_16
REMARK    7  A    between atoms: C_17  and  C_19
REMARK                            x       y       z     vdW  Elec       q    Type
REMARK                         _______ _______ _______ _____ _____    ______ ____
ROOT
ATOM      1  C   UNL     1      45.257   6.715  11.526  0.00  0.00    +0.000 A 
ATOM      2  C   UNL     1      44.900   8.001  11.956  0.00  0.00    +0.000 A 
ATOM      3  C   UNL     1      45.706   8.706  12.861  0.00  0.00    +0.000 A 
ATOM      4  C   UNL     1      46.900   8.149  13.338  0.00  0.00    +0.000 A 
ATOM      5  C   UNL     1      47.249   6.859  12.918  0.00  0.00    +0.000 A 
ATOM      6  C   UNL     1      46.446   6.155  12.012  0.00  0.00    +0.000 A 
ENDROOT
BRANCH   1   7
ATOM      7  C   UNL     1      44.360   5.943  10.593  0.00  0.00    +0.000 C 
BRANCH   7  10
ATOM      8  C   UNL     1      44.735   3.834   9.399  0.00  0.00    +0.000 C 
ATOM      9  O   UNL     1      43.826   3.262   9.994  0.00  0.00    +0.000 OA
ATOM     10  N   UNL     1      45.075   5.155   9.622  0.00  0.00    +0.000 N 
ATOM     11  H   UNL     1      45.852   5.537   9.092  0.00  0.00    +0.000 HD
BRANCH   8  17
ATOM     12  C   UNL     1      46.840  -0.358   7.628  0.00  0.00    +0.000 C 
ATOM     13  C   UNL     1      46.556   1.110   7.517  0.00  0.00    +0.000 A 
ATOM     14  C   UNL     1      47.036   1.866   6.446  0.00  0.00    +0.000 A 
ATOM     15  C   UNL     1      46.740   3.222   6.396  0.00  0.00    +0.000 A 
ATOM     16  N   UNL     1      46.015   3.875   7.326  0.00  0.00    +0.000 NA
ATOM     17  C   UNL     1      45.552   3.121   8.361  0.00  0.00    +0.000 A 
ATOM     18  C   UNL     1      45.799   1.757   8.498  0.00  0.00    +0.000 A 
ENDBRANCH   8  17
ENDBRANCH   7  10
ENDBRANCH   1   7
BRANCH   4  19
ATOM     19  C   UNL     1      47.794   8.905  14.291  0.00  0.00    +0.000 C 
BRANCH  19  20
ATOM     20  N   UNL     1      48.045   8.164  15.502  0.00  0.00    +0.000 N 
ATOM     21  C   UNL     1      49.314   7.768  15.844  0.00  0.00    +0.000 C 
ATOM     22  O   UNL     1      50.294   8.054  15.162  0.00  0.00    +0.000 OA
ATOM     23  H   UNL     1      47.249   7.695  15.923  0.00  0.00    +0.000 HD
BRANCH  21  24
ATOM     24  C   UNL     1      49.449   7.030  17.109  0.00  0.00    +0.000 A 
ATOM     25  C   UNL     1      50.105   7.614  18.185  0.00  0.00    +0.000 A 
ATOM     26  S   UNL     1      50.122   6.636  19.584  0.00  0.00    +0.000 S 
ATOM     27  C   UNL     1      49.301   5.380  18.783  0.00  0.00    +0.000 A 
ATOM     28  N   UNL     1      49.011   4.210  19.420  0.00  0.00    +0.000 NA
ATOM     29  C   UNL     1      48.410   3.338  18.679  0.00  0.00    +0.000 A 
ATOM     30  N   UNL     1      48.059   3.533  17.370  0.00  0.00    +0.000 N 
ATOM     31  C   UNL     1      48.304   4.706  16.700  0.00  0.00    +0.000 A 
ATOM     32  O   UNL     1      47.926   4.862  15.537  0.00  0.00    +0.000 OA
ATOM     33  C   UNL     1      48.994   5.714  17.477  0.00  0.00    +0.000 A 
ATOM     34  H   UNL     1      47.575   2.814  16.850  0.00  0.00    +0.000 HD
ENDBRANCH  21  24
ENDBRANCH  19  20
ENDBRANCH   4  19
TORSDOF 6
ENDMDL
MODEL 3
REMARK VINA RESULT:    -7.755      2.088      2.684
REMARK INTER + INTRA:         -11.556
REMARK INTER:                 -10.667
REMARK INTRA:                  -0.889
REMARK UNBOUND:                -1.081
REMARK  Name = 
REMARK  7 active torsions:
REMARK  status: ('A' for Active; 'I' for Inactive)
REMARK    1  A    between atoms: C_1  and  C_2
REMARK    2  A    between atoms: C_6  and  C_7
REMARK    3  A    between atoms: N_9  and  C_10
REMARK    4  A    between atoms: C_10  and  C_11
REMARK    5  A    between atoms: C_14  and  C_15
REMARK    6  A    between atoms: C_15  and  N_16
REMARK    7  A    between atoms: C_17  and  C_19
REMARK                            x       y       z     vdW  Elec       q    Type
REMARK                         _______ _______ _______ _____ _____    ______ ____
ROOT
ATOM      1  C   UNL     1      45.613   6.721  11.825  0.00  0.00    +0.000 A 
ATOM      2  C   UNL     1      46.581   5.887  12.400  0.00  0.00    +0.000 A 
ATOM      3  C   UNL     1      47.493   6.384  13.341  0.00  0.00    +0.000 A 
ATOM      4  C   UNL     1      47.441   7.725  13.746  0.00  0.00    +0.000 A 
ATOM      5  C   UNL     1      46.480   8.562  13.162  0.00  0.00    +0.000 A 
ATOM      6  C   UNL     1      45.568   8.064  12.223  0.00  0.00    +0.000 A 
ENDROOT
BRANCH   1   7
ATOM      7  C   UNL     1      44.669   6.191  10.776  0.00  0.00    +0.000 C 
BRANCH   7  10
ATOM      8  C   UNL     1      44.885   4.093   9.526  0.00  0.00    +0.000 C 
ATOM      9  O   UNL     1      43.954   3.565  10.127  0.00  0.00    +0.000 OA
ATOM     10  N   UNL     1      45.312   5.384   9.773  0.00  0.00    +0.000 N 
ATOM     11  H   UNL     1      46.101   5.729   9.235  0.00  0.00    +0.000 HD
BRANCH   8  17
ATOM     12  C   UNL     1      46.803  -0.157   7.683  0.00  0.00    +0.000 C 
ATOM     13  C   UNL     1      46.548   1.316   7.576  0.00  0.00    +0.000 A 
ATOM     14  C   UNL     1      46.994   2.055   6.478  0.00  0.00    +0.000 A 
ATOM     15  C   UNL     1      46.728   3.417   6.434  0.00  0.00    +0.000 A 
ATOM     16  N   UNL     1      46.063   4.092   7.394  0.00  0.00    +0.000 NA
ATOM     17  C   UNL     1      45.634   3.356   8.455  0.00  0.00    +0.000 A 
ATOM     18  C   UNL     1      45.855   1.986   8.588  0.00  0.00    +0.000 A 
ENDBRANCH   8  17
ENDBRANCH   7  10
ENDBRANCH   1   7
BRANCH   4  19
ATOM     19  C   UNL     1      48.396   8.271  14.779  0.00  0.00    +0.000 C 
BRANCH  19  20
ATOM     20  N   UNL     1      48.206   7.660  16.070  0.00  0.00    +0.000 N 
ATOM     21  C   UNL     1      49.122   6.773  16.580  0.00  0.00    +0.000 C 
ATOM     22  O   UNL     1      50.157   6.487  15.983  0.00  0.00    +0.000 OA
ATOM     23  H   UNL     1      47.263   7.666  16.444  0.00  0.00    +0.000 HD
BRANCH  21  24
ATOM     24  C   UNL     1      48.828   6.224  17.912  0.00  0.00    +0.000 A 
ATOM     25  C   UNL     1      49.054   4.878  18.172  0.00  0.00    +0.000 A 
ATOM     26  S   UNL     1      48.707   4.428  19.781  0.00  0.00    +0.000 S 
ATOM     27  C   UNL     1      48.194   6.002  20.169  0.00  0.00    +0.000 A 
ATOM     28  N   UNL     1      47.734   6.305  21.416  0.00  0.00    +0.000 NA
ATOM     29  C   UNL     1      47.354   7.532  21.557  0.00  0.00    +0.000 A 
ATOM     30  N   UNL     1      47.405   8.485  20.575  0.00  0.00    +0.000 N 
ATOM     31  C   UNL     1      47.890   8.231  19.315  0.00  0.00    +0.000 A 
ATOM     32  O   UNL     1      47.969   9.128  18.474  0.00  0.00    +0.000 OA
ATOM     33  C   UNL     1      48.313   6.864  19.095  0.00  0.00    +0.000 A 
ATOM     34  H   UNL     1      47.107   9.434  20.755  0.00  0.00    +0.000 HD
ENDBRANCH  21  24
ENDBRANCH  19  20
ENDBRANCH   4  19
TORSDOF 6
ENDMDL
MODEL 4
REMARK VINA RESULT:    -7.545      2.145      2.283
REMARK INTER + INTRA:         -11.272
REMARK INTER:                 -10.422
REMARK INTRA:                  -0.851
REMARK UNBOUND:                -1.081
REMARK  Name = 
REMARK  7 active torsions:
REMARK  status: ('A' for Active; 'I' for Inactive)
REMARK    1  A    between atoms: C_1  and  C_2
REMARK    2  A    between atoms: C_6  and  C_7
REMARK    3  A    between atoms: N_9  and  C_10
REMARK    4  A    between atoms: C_10  and  C_11
REMARK    5  A    between atoms: C_14  and  C_15
REMARK    6  A    between atoms: C_15  and  N_16
REMARK    7  A    between atoms: C_17  and  C_19
REMARK                            x       y       z     vdW  Elec       q    Type
REMARK                         _______ _______ _______ _____ _____    ______ ____
ROOT
ATOM      1  C   UNL     1      45.381   6.618  11.615  0.00  0.00    +0.000 A 
ATOM      2  C   UNL     1      46.672   6.135  11.869  0.00  0.00    +0.000 A 
ATOM      3  C   UNL     1      47.568   6.860  12.666  0.00  0.00    +0.000 A 
ATOM      4  C   UNL     1      47.184   8.077  13.246  0.00  0.00    +0.000 A 
ATOM      5  C   UNL     1      45.898   8.566  12.982  0.00  0.00    +0.000 A 
ATOM      6  C   UNL     1      45.001   7.840  12.187  0.00  0.00    +0.000 A 
ENDROOT
BRANCH   1   7
ATOM      7  C   UNL     1      44.440   5.858  10.716  0.00  0.00    +0.000 C 
BRANCH   7  10
ATOM      8  C   UNL     1      44.695   3.680   9.618  0.00  0.00    +0.000 C 
ATOM      9  O   UNL     1      43.758   3.186  10.239  0.00  0.00    +0.000 OA
ATOM     10  N   UNL     1      45.108   4.989   9.782  0.00  0.00    +0.000 N 
ATOM     11  H   UNL     1      45.903   5.303   9.235  0.00  0.00    +0.000 HD
BRANCH   8  17
ATOM     12  C   UNL     1      47.160   3.349   5.265  0.00  0.00    +0.000 C 
ATOM     13  C   UNL     1      46.651   2.725   6.529  0.00  0.00    +0.000 A 
ATOM     14  C   UNL     1      46.880   1.379   6.821  0.00  0.00    +0.000 A 
ATOM     15  C   UNL     1      46.384   0.857   8.008  0.00  0.00    +0.000 A 
ATOM     16  N   UNL     1      45.680   1.565   8.914  0.00  0.00    +0.000 NA
ATOM     17  C   UNL     1      45.469   2.877   8.614  0.00  0.00    +0.000 A 
ATOM     18  C   UNL     1      45.926   3.488   7.448  0.00  0.00    +0.000 A 
ENDBRANCH   8  17
ENDBRANCH   7  10
ENDBRANCH   1   7
BRANCH   4  19
ATOM     19  C   UNL     1      48.126   8.858  14.129  0.00  0.00    +0.000 C 
BRANCH  19  20
ATOM     20  N   UNL     1      47.847   8.658  15.530  0.00  0.00    +0.000 N 
ATOM     21  C   UNL     1      48.331   9.520  16.482  0.00  0.00    +0.000 C 
ATOM     22  O   UNL     1      48.988  10.516  16.189  0.00  0.00    +0.000 OA
ATOM     23  H   UNL     1      47.553   7.727  15.808  0.00  0.00    +0.000 HD
BRANCH  21  24
ATOM     24  C   UNL     1      47.970   9.222  17.876  0.00  0.00    +0.000 A 
ATOM     25  C   UNL     1      47.527  10.241  18.710  0.00  0.00    +0.000 A 
ATOM     26  S   UNL     1      47.105   9.706  20.274  0.00  0.00    +0.000 S 
ATOM     27  C   UNL     1      47.550   8.106  19.907  0.00  0.00    +0.000 A 
ATOM     28  N   UNL     1      47.457   7.117  20.841  0.00  0.00    +0.000 NA
ATOM     29  C   UNL     1      47.855   5.959  20.428  0.00  0.00    +0.000 A 
ATOM     30  N   UNL     1      48.322   5.696  19.168  0.00  0.00    +0.000 N 
ATOM     31  C   UNL     1      48.403   6.655  18.188  0.00  0.00    +0.000 A 
ATOM     32  O   UNL     1      48.780   6.368  17.050  0.00  0.00    +0.000 OA
ATOM     33  C   UNL     1      47.987   7.978  18.602  0.00  0.00    +0.000 A 
ATOM     34  H   UNL     1      48.604   4.762  18.903  0.00  0.00    +0.000 HD
ENDBRANCH  21  24
ENDBRANCH  19  20
ENDBRANCH   4  19
TORSDOF 6
ENDMDL
MODEL 5
REMARK VINA RESULT:    -7.431      4.286      7.349
REMARK INTER + INTRA:         -11.118
REMARK INTER:                 -10.109
REMARK INTRA:                  -1.009
REMARK UNBOUND:                -1.081
REMARK  Name = 
REMARK  7 active torsions:
REMARK  status: ('A' for Active; 'I' for Inactive)
REMARK    1  A    between atoms: C_1  and  C_2
REMARK    2  A    between atoms: C_6  and  C_7
REMARK    3  A    between atoms: N_9  and  C_10
REMARK    4  A    between atoms: C_10  and  C_11
REMARK    5  A    between atoms: C_14  and  C_15
REMARK    6  A    between atoms: C_15  and  N_16
REMARK    7  A    between atoms: C_17  and  C_19
REMARK                            x       y       z     vdW  Elec       q    Type
REMARK                         _______ _______ _______ _____ _____    ______ ____
ROOT
ATOM      1  C   UNL     1      44.793   9.157  11.778  0.00  0.00    +0.000 A 
ATOM      2  C   UNL     1      45.813   9.061  12.735  0.00  0.00    +0.000 A 
ATOM      3  C   UNL     1      46.276   7.812  13.171  0.00  0.00    +0.000 A 
ATOM      4  C   UNL     1      45.743   6.629  12.643  0.00  0.00    +0.000 A 
ATOM      5  C   UNL     1      44.714   6.725  11.696  0.00  0.00    +0.000 A 
ATOM      6  C   UNL     1      44.254   7.973  11.257  0.00  0.00    +0.000 A 
ENDROOT
BRANCH   1   7
ATOM      7  C   UNL     1      44.265  10.503  11.351  0.00  0.00    +0.000 C 
BRANCH   7  10
ATOM      8  C   UNL     1      41.844  10.886  11.381  0.00  0.00    +0.000 C 
ATOM      9  O   UNL     1      41.712  10.549  10.208  0.00  0.00    +0.000 OA
ATOM     10  N   UNL     1      43.061  10.896  12.036  0.00  0.00    +0.000 N 
ATOM     11  H   UNL     1      43.073  11.205  13.003  0.00  0.00    +0.000 HD
BRANCH   8  17
ATOM     12  C   UNL     1      36.899  10.955  12.206  0.00  0.00    +0.000 C 
ATOM     13  C   UNL     1      38.294  11.342  12.595  0.00  0.00    +0.000 A 
ATOM     14  C   UNL     1      38.547  12.110  13.732  0.00  0.00    +0.000 A 
ATOM     15  C   UNL     1      39.861  12.437  14.041  0.00  0.00    +0.000 A 
ATOM     16  N   UNL     1      40.929  12.066  13.307  0.00  0.00    +0.000 NA
ATOM     17  C   UNL     1      40.663  11.315  12.203  0.00  0.00    +0.000 A 
ATOM     18  C   UNL     1      39.380  10.939  11.812  0.00  0.00    +0.000 A 
ENDBRANCH   8  17
ENDBRANCH   7  10
ENDBRANCH   1   7
BRANCH   4  19
ATOM     19  C   UNL     1      46.248   5.276  13.080  0.00  0.00    +0.000 C 
BRANCH  19  20
ATOM     20  N   UNL     1      46.806   5.309  14.409  0.00  0.00    +0.000 N 
ATOM     21  C   UNL     1      47.319   4.178  14.994  0.00  0.00    +0.000 C 
ATOM     22  O   UNL     1      47.362   3.100  14.407  0.00  0.00    +0.000 OA
ATOM     23  H   UNL     1      46.541   6.093  14.997  0.00  0.00    +0.000 HD
BRANCH  21  24
ATOM     24  C   UNL     1      47.874   4.337  16.347  0.00  0.00    +0.000 A 
ATOM     25  C   UNL     1      47.469   3.483  17.366  0.00  0.00    +0.000 A 
ATOM     26  S   UNL     1      48.252   3.780  18.853  0.00  0.00    +0.000 S 
ATOM     27  C   UNL     1      49.116   5.091  18.200  0.00  0.00    +0.000 A 
ATOM     28  N   UNL     1      49.974   5.822  18.968  0.00  0.00    +0.000 NA
ATOM     29  C   UNL     1      50.538   6.803  18.345  0.00  0.00    +0.000 A 
ATOM     30  N   UNL     1      50.338   7.111  17.026  0.00  0.00    +0.000 N 
ATOM     31  C   UNL     1      49.508   6.383  16.208  0.00  0.00    +0.000 A 
ATOM     32  O   UNL     1      49.394   6.660  15.013  0.00  0.00    +0.000 OA
ATOM     33  C   UNL     1      48.833   5.281  16.861  0.00  0.00    +0.000 A 
ATOM     34  H   UNL     1      50.824   7.884  16.593  0.00  0.00    +0.000 HD
ENDBRANCH  21  24
ENDBRANCH  19  20
ENDBRANCH   4  19
TORSDOF 6
ENDMDL
MODEL 6
REMARK VINA RESULT:    -7.220      2.869      3.922
REMARK INTER + INTRA:         -10.833
REMARK INTER:                  -9.903
REMARK INTRA:                  -0.930
REMARK UNBOUND:                -1.081
REMARK  Name = 
REMARK  7 active torsions:
REMARK  status: ('A' for Active; 'I' for Inactive)
REMARK    1  A    between atoms: C_1  and  C_2
REMARK    2  A    between atoms: C_6  and  C_7
REMARK    3  A    between atoms: N_9  and  C_10
REMARK    4  A    between atoms: C_10  and  C_11
REMARK    5  A    between atoms: C_14  and  C_15
REMARK    6  A    between atoms: C_15  and  N_16
REMARK    7  A    between atoms: C_17  and  C_19
REMARK                            x       y       z     vdW  Elec       q    Type
REMARK                         _______ _______ _______ _____ _____    ______ ____
ROOT
ATOM      1  C   UNL     1      45.944   5.786  12.672  0.00  0.00    +0.000 A 
ATOM      2  C   UNL     1      45.839   4.707  13.560  0.00  0.00    +0.000 A 
ATOM      3  C   UNL     1      46.674   4.614  14.682  0.00  0.00    +0.000 A 
ATOM      4  C   UNL     1      47.619   5.612  14.953  0.00  0.00    +0.000 A 
ATOM      5  C   UNL     1      47.732   6.685  14.058  0.00  0.00    +0.000 A 
ATOM      6  C   UNL     1      46.896   6.779  12.938  0.00  0.00    +0.000 A 
ENDROOT
BRANCH   1   7
ATOM      7  C   UNL     1      45.077   5.852  11.441  0.00  0.00    +0.000 C 
BRANCH   7  10
ATOM      8  C   UNL     1      44.968   4.015   9.820  0.00  0.00    +0.000 C 
ATOM      9  O   UNL     1      43.924   3.576  10.293  0.00  0.00    +0.000 OA
ATOM     10  N   UNL     1      45.614   5.133  10.315  0.00  0.00    +0.000 N 
ATOM     11  H   UNL     1      46.481   5.412   9.867  0.00  0.00    +0.000 HD
BRANCH   8  17
ATOM     12  C   UNL     1      46.744  -0.088   7.552  0.00  0.00    +0.000 C 
ATOM     13  C   UNL     1      46.472   1.386   7.561  0.00  0.00    +0.000 A 
ATOM     14  C   UNL     1      46.815   2.197   6.477  0.00  0.00    +0.000 A 
ATOM     15  C   UNL     1      46.537   3.557   6.543  0.00  0.00    +0.000 A 
ATOM     16  N   UNL     1      45.955   4.162   7.597  0.00  0.00    +0.000 NA
ATOM     17  C   UNL     1      45.625   3.356   8.644  0.00  0.00    +0.000 A 
ATOM     18  C   UNL     1      45.866   1.983   8.670  0.00  0.00    +0.000 A 
ENDBRANCH   8  17
ENDBRANCH   7  10
ENDBRANCH   1   7
BRANCH   4  19
ATOM     19  C   UNL     1      48.508   5.543  16.171  0.00  0.00    +0.000 C 
BRANCH  19  20
ATOM     20  N   UNL     1      48.053   6.416  17.224  0.00  0.00    +0.000 N 
ATOM     21  C   UNL     1      48.708   6.480  18.429  0.00  0.00    +0.000 C 
ATOM     22  O   UNL     1      49.725   5.830  18.655  0.00  0.00    +0.000 OA
ATOM     23  H   UNL     1      47.093   6.742  17.165  0.00  0.00    +0.000 HD
BRANCH  21  24
ATOM     24  C   UNL     1      48.160   7.416  19.421  0.00  0.00    +0.000 A 
ATOM     25  C   UNL     1      47.916   6.985  20.720  0.00  0.00    +0.000 A 
ATOM     26  S   UNL     1      47.331   8.216  21.747  0.00  0.00    +0.000 S 
ATOM     27  C   UNL     1      47.332   9.350  20.480  0.00  0.00    +0.000 A 
ATOM     28  N   UNL     1      46.910  10.631  20.680  0.00  0.00    +0.000 NA
ATOM     29  C   UNL     1      46.940  11.372  19.622  0.00  0.00    +0.000 A 
ATOM     30  N   UNL     1      47.367  10.956  18.389  0.00  0.00    +0.000 N 
ATOM     31  C   UNL     1      47.829   9.686  18.149  0.00  0.00    +0.000 A 
ATOM     32  O   UNL     1      48.254   9.365  17.038  0.00  0.00    +0.000 OA
ATOM     33  C   UNL     1      47.799   8.805  19.299  0.00  0.00    +0.000 A 
ATOM     34  H   UNL     1      47.381  11.592  17.603  0.00  0.00    +0.000 HD
ENDBRANCH  21  24
ENDBRANCH  19  20
ENDBRANCH   4  19
TORSDOF 6
ENDMDL
MODEL 7
REMARK VINA RESULT:    -6.722      1.652      2.255
REMARK INTER + INTRA:         -10.161
REMARK INTER:                  -9.424
REMARK INTRA:                  -0.737
REMARK UNBOUND:                -1.081
REMARK  Name = 
REMARK  7 active torsions:
REMARK  status: ('A' for Active; 'I' for Inactive)
REMARK    1  A    between atoms: C_1  and  C_2
REMARK    2  A    between atoms: C_6  and  C_7
REMARK    3  A    between atoms: N_9  and  C_10
REMARK    4  A    between atoms: C_10  and  C_11
REMARK    5  A    between atoms: C_14  and  C_15
REMARK    6  A    between atoms: C_15  and  N_16
REMARK    7  A    between atoms: C_17  and  C_19
REMARK                            x       y       z     vdW  Elec       q    Type
REMARK                         _______ _______ _______ _____ _____    ______ ____
ROOT
ATOM      1  C   UNL     1      46.517   7.653  12.298  0.00  0.00    +0.000 A 
ATOM      2  C   UNL     1      47.726   7.004  12.013  0.00  0.00    +0.000 A 
ATOM      3  C   UNL     1      48.885   7.283  12.751  0.00  0.00    +0.000 A 
ATOM      4  C   UNL     1      48.854   8.203  13.807  0.00  0.00    +0.000 A 
ATOM      5  C   UNL     1      47.648   8.861  14.084  0.00  0.00    +0.000 A 
ATOM      6  C   UNL     1      46.489   8.581  13.348  0.00  0.00    +0.000 A 
ENDROOT
BRANCH   1   7
ATOM      7  C   UNL     1      45.288   7.385  11.467  0.00  0.00    +0.000 C 
BRANCH   7  10
ATOM      8  C   UNL     1      44.717   5.102  10.778  0.00  0.00    +0.000 C 
ATOM      9  O   UNL     1      43.940   4.946  11.716  0.00  0.00    +0.000 OA
ATOM     10  N   UNL     1      45.429   6.269  10.569  0.00  0.00    +0.000 N 
ATOM     11  H   UNL     1      46.060   6.299   9.775  0.00  0.00    +0.000 HD
BRANCH   8  17
ATOM     12  C   UNL     1      46.658   3.516   6.436  0.00  0.00    +0.000 C 
ATOM     13  C   UNL     1      45.882   3.258   7.693  0.00  0.00    +0.000 A 
ATOM     14  C   UNL     1      45.350   1.999   7.975  0.00  0.00    +0.000 A 
ATOM     15  C   UNL     1      44.640   1.820   9.155  0.00  0.00    +0.000 A 
ATOM     16  N   UNL     1      44.419   2.792  10.063  0.00  0.00    +0.000 NA
ATOM     17  C   UNL     1      44.948   4.013   9.772  0.00  0.00    +0.000 A 
ATOM     18  C   UNL     1      45.672   4.288   8.614  0.00  0.00    +0.000 A 
ENDBRANCH   8  17
ENDBRANCH   7  10
ENDBRANCH   1   7
BRANCH   4  19
ATOM     19  C   UNL     1      50.085   8.496  14.631  0.00  0.00    +0.000 C 
BRANCH  19  20
ATOM     20  N   UNL     1      49.853   8.298  16.040  0.00  0.00    +0.000 N 
ATOM     21  C   UNL     1      50.215   7.130  16.664  0.00  0.00    +0.000 C 
ATOM     22  O   UNL     1      50.781   6.219  16.067  0.00  0.00    +0.000 OA
ATOM     23  H   UNL     1      49.164   8.901  16.479  0.00  0.00    +0.000 HD
BRANCH  21  24
ATOM     24  C   UNL     1      49.942   7.049  18.106  0.00  0.00    +0.000 A 
ATOM     25  C   UNL     1      50.190   8.146  18.922  0.00  0.00    +0.000 A 
ATOM     26  S   UNL     1      49.766   7.890  20.555  0.00  0.00    +0.000 S 
ATOM     27  C   UNL     1      49.288   6.289  20.238  0.00  0.00    +0.000 A 
ATOM     28  N   UNL     1      48.832   5.479  21.235  0.00  0.00    +0.000 NA
ATOM     29  C   UNL     1      48.532   4.283  20.851  0.00  0.00    +0.000 A 
ATOM     30  N   UNL     1      48.630   3.826  19.564  0.00  0.00    +0.000 N 
ATOM     31  C   UNL     1      49.054   4.617  18.524  0.00  0.00    +0.000 A 
ATOM     32  O   UNL     1      49.079   4.185  17.369  0.00  0.00    +0.000 OA
ATOM     33  C   UNL     1      49.423   5.965  18.901  0.00  0.00    +0.000 A 
ATOM     34  H   UNL     1      48.363   2.881  19.326  0.00  0.00    +0.000 HD
ENDBRANCH  21  24
ENDBRANCH  19  20
ENDBRANCH   4  19
TORSDOF 6
ENDMDL
MODEL 8
REMARK VINA RESULT:    -6.714      2.771      4.081
REMARK INTER + INTRA:         -10.149
REMARK INTER:                  -9.239
REMARK INTRA:                  -0.910
REMARK UNBOUND:                -1.081
REMARK  Name = 
REMARK  7 active torsions:
REMARK  status: ('A' for Active; 'I' for Inactive)
REMARK    1  A    between atoms: C_1  and  C_2
REMARK    2  A    between atoms: C_6  and  C_7
REMARK    3  A    between atoms: N_9  and  C_10
REMARK    4  A    between atoms: C_10  and  C_11
REMARK    5  A    between atoms: C_14  and  C_15
REMARK    6  A    between atoms: C_15  and  N_16
REMARK    7  A    between atoms: C_17  and  C_19
REMARK                            x       y       z     vdW  Elec       q    Type
REMARK                         _______ _______ _______ _____ _____    ______ ____
ROOT
ATOM      1  C   UNL     1      48.109   7.463  13.881  0.00  0.00    +0.000 A 
ATOM      2  C   UNL     1      48.046   6.187  14.456  0.00  0.00    +0.000 A 
ATOM      3  C   UNL     1      48.360   5.991  15.808  0.00  0.00    +0.000 A 
ATOM      4  C   UNL     1      48.723   7.073  16.621  0.00  0.00    +0.000 A 
ATOM      5  C   UNL     1      48.798   8.347  16.042  0.00  0.00    +0.000 A 
ATOM      6  C   UNL     1      48.481   8.543  14.692  0.00  0.00    +0.000 A 
ENDROOT
BRANCH   1   7
ATOM      7  C   UNL     1      47.819   7.658  12.415  0.00  0.00    +0.000 C 
BRANCH   7  10
ATOM      8  C   UNL     1      45.865   6.587  11.391  0.00  0.00    +0.000 C 
ATOM      9  O   UNL     1      45.166   7.586  11.530  0.00  0.00    +0.000 OA
ATOM     10  N   UNL     1      47.186   6.524  11.794  0.00  0.00    +0.000 N 
ATOM     11  H   UNL     1      47.680   5.649  11.651  0.00  0.00    +0.000 HD
BRANCH   8  17
ATOM     12  C   UNL     1      45.544   3.473   7.474  0.00  0.00    +0.000 C 
ATOM     13  C   UNL     1      45.174   3.852   8.876  0.00  0.00    +0.000 A 
ATOM     14  C   UNL     1      44.315   3.061   9.642  0.00  0.00    +0.000 A 
ATOM     15  C   UNL     1      44.009   3.463  10.936  0.00  0.00    +0.000 A 
ATOM     16  N   UNL     1      44.484   4.584  11.515  0.00  0.00    +0.000 NA
ATOM     17  C   UNL     1      45.322   5.341  10.755  0.00  0.00    +0.000 A 
ATOM     18  C   UNL     1      45.685   5.020   9.448  0.00  0.00    +0.000 A 
ENDBRANCH   8  17
ENDBRANCH   7  10
ENDBRANCH   1   7
BRANCH   4  19
ATOM     19  C   UNL     1      49.038   6.885  18.086  0.00  0.00    +0.000 C 
BRANCH  19  20
ATOM     20  N   UNL     1      49.965   5.803  18.306  0.00  0.00    +0.000 N 
ATOM     21  C   UNL     1      51.313   5.970  18.108  0.00  0.00    +0.000 C 
ATOM     22  O   UNL     1      51.797   7.047  17.772  0.00  0.00    +0.000 OA
ATOM     23  H   UNL     1      49.578   4.865  18.315  0.00  0.00    +0.000 HD
BRANCH  21  24
ATOM     24  C   UNL     1      52.162   4.800  18.378  0.00  0.00    +0.000 A 
ATOM     25  C   UNL     1      53.370   4.959  19.047  0.00  0.00    +0.000 A 
ATOM     26  S   UNL     1      54.197   3.491  19.318  0.00  0.00    +0.000 S 
ATOM     27  C   UNL     1      52.997   2.601  18.506  0.00  0.00    +0.000 A 
ATOM     28  N   UNL     1      53.104   1.250  18.353  0.00  0.00    +0.000 NA
ATOM     29  C   UNL     1      52.133   0.713  17.691  0.00  0.00    +0.000 A 
ATOM     30  N   UNL     1      51.060   1.396  17.183  0.00  0.00    +0.000 N 
ATOM     31  C   UNL     1      50.897   2.750  17.341  0.00  0.00    +0.000 A 
ATOM     32  O   UNL     1      49.891   3.321  16.914  0.00  0.00    +0.000 OA
ATOM     33  C   UNL     1      51.968   3.408  18.059  0.00  0.00    +0.000 A 
ATOM     34  H   UNL     1      50.324   0.912  16.688  0.00  0.00    +0.000 HD
ENDBRANCH  21  24
ENDBRANCH  19  20
ENDBRANCH   4  19
TORSDOF 6
ENDMDL
MODEL 9
REMARK VINA RESULT:    -6.445      1.906      2.624
REMARK INTER + INTRA:          -9.787
REMARK INTER:                  -8.738
REMARK INTRA:                  -1.048
REMARK UNBOUND:                -1.081
REMARK  Name = 
REMARK  7 active torsions:
REMARK  status: ('A' for Active; 'I' for Inactive)
REMARK    1  A    between atoms: C_1  and  C_2
REMARK    2  A    between atoms: C_6  and  C_7
REMARK    3  A    between atoms: N_9  and  C_10
REMARK    4  A    between atoms: C_10  and  C_11
REMARK    5  A    between atoms: C_14  and  C_15
REMARK    6  A    between atoms: C_15  and  N_16
REMARK    7  A    between atoms: C_17  and  C_19
REMARK                            x       y       z     vdW  Elec       q    Type
REMARK                         _______ _______ _______ _____ _____    ______ ____
ROOT
ATOM      1  C   UNL     1      46.057   8.136  12.194  0.00  0.00    +0.000 A 
ATOM      2  C   UNL     1      46.450   9.479  12.107  0.00  0.00    +0.000 A 
ATOM      3  C   UNL     1      47.563   9.950  12.817  0.00  0.00    +0.000 A 
ATOM      4  C   UNL     1      48.321   9.082  13.614  0.00  0.00    +0.000 A 
ATOM      5  C   UNL     1      47.920   7.743  13.711  0.00  0.00    +0.000 A 
ATOM      6  C   UNL     1      46.809   7.271  12.999  0.00  0.00    +0.000 A 
ENDROOT
BRANCH   1   7
ATOM      7  C   UNL     1      44.830   7.648  11.467  0.00  0.00    +0.000 C 
BRANCH   7  10
ATOM      8  C   UNL     1      44.226   5.387  10.735  0.00  0.00    +0.000 C 
ATOM      9  O   UNL     1      43.256   5.335  11.484  0.00  0.00    +0.000 OA
ATOM     10  N   UNL     1      45.064   6.484  10.653  0.00  0.00    +0.000 N 
ATOM     11  H   UNL     1      45.851   6.429  10.014  0.00  0.00    +0.000 HD
BRANCH   8  17
ATOM     12  C   UNL     1      46.614   3.557   6.724  0.00  0.00    +0.000 C 
ATOM     13  C   UNL     1      45.722   3.367   7.913  0.00  0.00    +0.000 A 
ATOM     14  C   UNL     1      45.185   2.117   8.229  0.00  0.00    +0.000 A 
ATOM     15  C   UNL     1      44.365   2.002   9.344  0.00  0.00    +0.000 A 
ATOM     16  N   UNL     1      44.039   3.028  10.155  0.00  0.00    +0.000 NA
ATOM     17  C   UNL     1      44.574   4.238   9.834  0.00  0.00    +0.000 A 
ATOM     18  C   UNL     1      45.404   4.452   8.735  0.00  0.00    +0.000 A 
ENDBRANCH   8  17
ENDBRANCH   7  10
ENDBRANCH   1   7
BRANCH   4  19
ATOM     19  C   UNL     1      49.538   9.565  14.364  0.00  0.00    +0.000 C 
BRANCH  19  20
ATOM     20  N   UNL     1      50.288   8.477  14.939  0.00  0.00    +0.000 N 
ATOM     21  C   UNL     1      50.891   8.597  16.166  0.00  0.00    +0.000 C 
ATOM     22  O   UNL     1      50.793   9.616  16.846  0.00  0.00    +0.000 OA
ATOM     23  H   UNL     1      50.605   7.753  14.301  0.00  0.00    +0.000 HD
BRANCH  21  24
ATOM     24  C   UNL     1      51.617   7.416  16.656  0.00  0.00    +0.000 A 
ATOM     25  C   UNL     1      52.995   7.472  16.830  0.00  0.00    +0.000 A 
ATOM     26  S   UNL     1      53.662   6.030  17.453  0.00  0.00    +0.000 S 
ATOM     27  C   UNL     1      52.142   5.266  17.461  0.00  0.00    +0.000 A 
ATOM     28  N   UNL     1      52.007   3.972  17.869  0.00  0.00    +0.000 NA
ATOM     29  C   UNL     1      50.800   3.517  17.796  0.00  0.00    +0.000 A 
ATOM     30  N   UNL     1      49.717   4.237  17.367  0.00  0.00    +0.000 N 
ATOM     31  C   UNL     1      49.802   5.551  16.978  0.00  0.00    +0.000 A 
ATOM     32  O   UNL     1      48.796   6.181  16.648  0.00  0.00    +0.000 OA
ATOM     33  C   UNL     1      51.138   6.108  17.022  0.00  0.00    +0.000 A 
ATOM     34  H   UNL     1      48.794   3.825  17.349  0.00  0.00    +0.000 HD
ENDBRANCH  21  24
ENDBRANCH  19  20
ENDBRANCH   4  19
TORSDOF 6
ENDMDL
