MODEL 1
REMARK VINA RESULT:    -7.393      0.000      0.000
REMARK INTER + INTRA:         -14.519
REMARK INTER:                 -12.147
REMARK INTRA:                  -2.373
REMARK UNBOUND:                -2.373
REMARK  Name = 
REMARK  13 active torsions:
REMARK  status: ('A' for Active; 'I' for Inactive)
REMARK    1  A    between atoms: C_1  and  C_2
REMARK    2  A    between atoms: C_2  and  N_3
REMARK    3  A    between atoms: C_2  and  C_21
REMARK    4  A    between atoms: N_3  and  C_4
REMARK    5  A    between atoms: C_4  and  C_5
REMARK    6  A    between atoms: C_8  and  C_9
REMARK    7  A    between atoms: C_9  and  N_10
REMARK    8  A    between atoms: N_10  and  C_11
REMARK    9  A    between atoms: N_10  and  C_12
REMARK   10  A    between atoms: C_12  and  C_13
REMARK   11  A    between atoms: C_24  and  C_25
REMARK   12  A    between atoms: N_27  and  C_28
REMARK   13  A    between atoms: C_28  and  C_29
REMARK                            x       y       z     vdW  Elec       q    Type
REMARK                         _______ _______ _______ _____ _____    ______ ____
ROOT
ATOM      1  C   UNL     1      49.293   8.669  13.364  0.00  0.00    +0.000 C 
ATOM      2  C   UNL     1      48.210   8.002  14.220  0.00  0.00    +0.000 C 
ENDROOT
BRANCH   2   3
ATOM      3  C   UNL     1      47.326   7.113  13.360  0.00  0.00    +0.000 A 
ATOM      4  C   UNL     1      46.987   5.823  13.802  0.00  0.00    +0.000 A 
ATOM      5  C   UNL     1      46.153   5.003  13.037  0.00  0.00    +0.000 A 
ATOM      6  C   UNL     1      45.652   5.467  11.815  0.00  0.00    +0.000 A 
ATOM      7  C   UNL     1      45.947   6.766  11.391  0.00  0.00    +0.000 A 
ATOM      8  C   UNL     1      46.781   7.581  12.154  0.00  0.00    +0.000 A 
BRANCH   6   9
ATOM      9  C   UNL     1      44.832   4.624  10.909  0.00  0.00    +0.000 C 
ATOM     10  O   UNL     1      43.748   5.027  10.502  0.00  0.00    +0.000 OA
ATOM     11  N   UNL     1      45.392   3.434  10.515  0.00  0.00    +0.000 N 
ATOM     12  H   UNL     1      46.275   3.115  10.885  0.00  0.00    +0.000 HD
BRANCH  11  13
ATOM     13  C   UNL     1      44.745   2.583   9.540  0.00  0.00    +0.000 C 
BRANCH  13  14
ATOM     14  C   UNL     1      45.624   2.319   8.344  0.00  0.00    +0.000 A 
ATOM     15  C   UNL     1      45.752   3.280   7.342  0.00  0.00    +0.000 A 
ATOM     16  C   UNL     1      46.572   3.012   6.252  0.00  0.00    +0.000 A 
ATOM     17  C   UNL     1      47.232   1.791   6.184  0.00  0.00    +0.000 A 
ATOM     18  C   UNL     1      47.035   0.881   7.211  0.00  0.00    +0.000 A 
ATOM     19  N   UNL     1      46.247   1.113   8.283  0.00  0.00    +0.000 NA
ENDBRANCH  13  14
ENDBRANCH  11  13
ENDBRANCH   6   9
ENDBRANCH   2   3
BRANCH   2  20
ATOM     20  N   UNL     1      47.449   9.033  14.938  0.00  0.00    +0.000 NA
ATOM     21  H   UNL     1      46.656   8.610  15.417  0.00  0.00    +0.000 HD
BRANCH  20  22
ATOM     22  C   UNL     1      48.276   9.725  15.928  0.00  0.00    +0.000 C 
BRANCH  22  23
ATOM     23  C   UNL     1      48.564   8.861  17.127  0.00  0.00    +0.000 A 
ATOM     24  C   UNL     1      49.730   8.081  17.175  0.00  0.00    +0.000 A 
ATOM     25  C   UNL     1      50.061   7.379  18.330  0.00  0.00    +0.000 A 
ATOM     26  C   UNL     1      49.235   7.447  19.461  0.00  0.00    +0.000 A 
ATOM     27  C   UNL     1      48.039   8.173  19.392  0.00  0.00    +0.000 A 
ATOM     28  C   UNL     1      47.706   8.873  18.233  0.00  0.00    +0.000 A 
BRANCH  26  29
ATOM     29  C   UNL     1      49.667   6.794  20.756  0.00  0.00    +0.000 C 
BRANCH  29  30
ATOM     30  N   UNL     1      50.064   5.381  20.578  0.00  0.00    +0.000 NA
ATOM     31  C   UNL     1      50.914   4.921  21.684  0.00  0.00    +0.000 C 
BRANCH  30  32
ATOM     32  C   UNL     1      48.881   4.508  20.495  0.00  0.00    +0.000 C 
BRANCH  32  33
ATOM     33  C   UNL     1      48.536   4.054  19.093  0.00  0.00    +0.000 A 
ATOM     34  C   UNL     1      47.412   4.566  18.429  0.00  0.00    +0.000 A 
ATOM     35  C   UNL     1      47.144   4.205  17.108  0.00  0.00    +0.000 A 
ATOM     36  C   UNL     1      47.994   3.325  16.440  0.00  0.00    +0.000 A 
ATOM     37  C   UNL     1      49.099   2.789  17.099  0.00  0.00    +0.000 A 
ATOM     38  C   UNL     1      49.369   3.149  18.419  0.00  0.00    +0.000 A 
ENDBRANCH  32  33
ENDBRANCH  30  32
ENDBRANCH  29  30
ENDBRANCH  26  29
ENDBRANCH  22  23
ENDBRANCH  20  22
ENDBRANCH   2  20
TORSDOF 11
ENDMDL
MODEL 2
REMARK VINA RESULT:    -7.092      2.220      5.684
REMARK INTER + INTRA:         -14.025
REMARK INTER:                 -10.777
REMARK INTRA:                  -3.248
REMARK UNBOUND:                -2.373
REMARK  Name = 
REMARK  13 active torsions:
REMARK  status: ('A' for Active; 'I' for Inactive)
REMARK    1  A    between atoms: C_1  and  C_2
REMARK    2  A    between atoms: C_2  and  N_3
REMARK    3  A    between atoms: C_2  and  C_21
REMARK    4  A    between atoms: N_3  and  C_4
REMARK    5  A    between atoms: C_4  and  C_5
REMARK    6  A    between atoms: C_8  and  C_9
REMARK    7  A    between atoms: C_9  and  N_10
REMARK    8  A    between atoms: N_10  and  C_11
REMARK    9  A    between atoms: N_10  and  C_12
REMARK   10  A    between atoms: C_12  and  C_13
REMARK   11  A    between atoms: C_24  and  C_25
REMARK   12  A    between atoms: N_27  and  C_28
REMARK   13  A    between atoms: C_28  and  C_29
REMARK                            x       y       z     vdW  Elec       q    Type
REMARK                         _______ _______ _______ _____ _____    ______ ____
ROOT
ATOM      1  C   UNL     1      48.438   4.020  17.050  0.00  0.00    +0.000 C 
ATOM      2  C   UNL     1      48.476   5.405  16.395  0.00  0.00    +0.000 C 
ENDROOT
BRANCH   2   3
ATOM      3  C   UNL     1      47.706   5.394  15.083  0.00  0.00    +0.000 A 
ATOM      4  C   UNL     1      46.833   4.333  14.791  0.00  0.00    +0.000 A 
ATOM      5  C   UNL     1      46.097   4.322  13.603  0.00  0.00    +0.000 A 
ATOM      6  C   UNL     1      46.233   5.374  12.690  0.00  0.00    +0.000 A 
ATOM      7  C   UNL     1      47.065   6.456  12.996  0.00  0.00    +0.000 A 
ATOM      8  C   UNL     1      47.800   6.465  14.179  0.00  0.00    +0.000 A 
BRANCH   6   9
ATOM      9  C   UNL     1      45.550   5.389  11.372  0.00  0.00    +0.000 C 
ATOM     10  O   UNL     1      45.622   6.378  10.650  0.00  0.00    +0.000 OA
ATOM     11  N   UNL     1      44.921   4.227  11.001  0.00  0.00    +0.000 N 
ATOM     12  H   UNL     1      44.857   3.437  11.626  0.00  0.00    +0.000 HD
BRANCH  11  13
ATOM     13  C   UNL     1      44.325   4.077   9.691  0.00  0.00    +0.000 C 
BRANCH  13  14
ATOM     14  C   UNL     1      45.249   3.381   8.724  0.00  0.00    +0.000 A 
ATOM     15  C   UNL     1      45.501   2.016   8.852  0.00  0.00    +0.000 A 
ATOM     16  C   UNL     1      46.354   1.400   7.943  0.00  0.00    +0.000 A 
ATOM     17  C   UNL     1      46.941   2.162   6.941  0.00  0.00    +0.000 A 
ATOM     18  C   UNL     1      46.656   3.517   6.894  0.00  0.00    +0.000 A 
ATOM     19  N   UNL     1      45.831   4.144   7.760  0.00  0.00    +0.000 NA
ENDBRANCH  13  14
ENDBRANCH  11  13
ENDBRANCH   6   9
ENDBRANCH   2   3
BRANCH   2  20
ATOM     20  N   UNL     1      49.872   5.831  16.228  0.00  0.00    +0.000 NA
ATOM     21  H   UNL     1      50.042   6.094  15.260  0.00  0.00    +0.000 HD
BRANCH  20  22
ATOM     22  C   UNL     1      50.195   6.973  17.085  0.00  0.00    +0.000 C 
BRANCH  22  23
ATOM     23  C   UNL     1      50.115   8.279  16.339  0.00  0.00    +0.000 A 
ATOM     24  C   UNL     1      51.143   8.659  15.464  0.00  0.00    +0.000 A 
ATOM     25  C   UNL     1      51.015   9.803  14.680  0.00  0.00    +0.000 A 
ATOM     26  C   UNL     1      49.855  10.585  14.755  0.00  0.00    +0.000 A 
ATOM     27  C   UNL     1      48.856  10.242  15.676  0.00  0.00    +0.000 A 
ATOM     28  C   UNL     1      48.986   9.098  16.462  0.00  0.00    +0.000 A 
BRANCH  26  29
ATOM     29  C   UNL     1      49.661  11.749  13.806  0.00  0.00    +0.000 C 
BRANCH  29  30
ATOM     30  N   UNL     1      48.587  11.508  12.820  0.00  0.00    +0.000 NA
ATOM     31  C   UNL     1      47.607  12.602  12.819  0.00  0.00    +0.000 C 
BRANCH  30  32
ATOM     32  C   UNL     1      49.140  11.365  11.463  0.00  0.00    +0.000 C 
BRANCH  32  33
ATOM     33  C   UNL     1      49.924  10.090  11.237  0.00  0.00    +0.000 A 
ATOM     34  C   UNL     1      51.246  10.133  10.773  0.00  0.00    +0.000 A 
ATOM     35  C   UNL     1      51.989   8.958  10.644  0.00  0.00    +0.000 A 
ATOM     36  C   UNL     1      51.416   7.731  10.972  0.00  0.00    +0.000 A 
ATOM     37  C   UNL     1      50.093   7.674  11.408  0.00  0.00    +0.000 A 
ATOM     38  C   UNL     1      49.349   8.846  11.539  0.00  0.00    +0.000 A 
ENDBRANCH  32  33
ENDBRANCH  30  32
ENDBRANCH  29  30
ENDBRANCH  26  29
ENDBRANCH  22  23
ENDBRANCH  20  22
ENDBRANCH   2  20
TORSDOF 11
ENDMDL
MODEL 3
REMARK VINA RESULT:    -6.923      2.006      2.725
REMARK INTER + INTRA:         -13.748
REMARK INTER:                 -11.038
REMARK INTRA:                  -2.710
REMARK UNBOUND:                -2.373
REMARK  Name = 
REMARK  13 active torsions:
REMARK  status: ('A' for Active; 'I' for Inactive)
REMARK    1  A    between atoms: C_1  and  C_2
REMARK    2  A    between atoms: C_2  and  N_3
REMARK    3  A    between atoms: C_2  and  C_21
REMARK    4  A    between atoms: N_3  and  C_4
REMARK    5  A    between atoms: C_4  and  C_5
REMARK    6  A    between atoms: C_8  and  C_9
REMARK    7  A    between atoms: C_9  and  N_10
REMARK    8  A    between atoms: N_10  and  C_11
REMARK    9  A    between atoms: N_10  and  C_12
REMARK   10  A    between atoms: C_12  and  C_13
REMARK   11  A    between atoms: C_24  and  C_25
REMARK   12  A    between atoms: N_27  and  C_28
REMARK   13  A    between atoms: C_28  and  C_29
REMARK                            x       y       z     vdW  Elec       q    Type
REMARK                         _______ _______ _______ _____ _____    ______ ____
ROOT
ATOM      1  C   UNL     1      48.161   9.036  16.190  0.00  0.00    +0.000 C 
ATOM      2  C   UNL     1      48.405   9.201  14.685  0.00  0.00    +0.000 C 
ENDROOT
BRANCH   2   3
ATOM      3  C   UNL     1      47.663   8.127  13.905  0.00  0.00    +0.000 A 
ATOM      4  C   UNL     1      48.152   6.810  13.886  0.00  0.00    +0.000 A 
ATOM      5  C   UNL     1      47.467   5.805  13.198  0.00  0.00    +0.000 A 
ATOM      6  C   UNL     1      46.285   6.112  12.514  0.00  0.00    +0.000 A 
ATOM      7  C   UNL     1      45.768   7.410  12.567  0.00  0.00    +0.000 A 
ATOM      8  C   UNL     1      46.453   8.411  13.252  0.00  0.00    +0.000 A 
BRANCH   6   9
ATOM      9  C   UNL     1      45.550   5.118  11.691  0.00  0.00    +0.000 C 
ATOM     10  O   UNL     1      45.131   4.084  12.199  0.00  0.00    +0.000 OA
ATOM     11  N   UNL     1      45.317   5.466  10.384  0.00  0.00    +0.000 N 
ATOM     12  H   UNL     1      45.695   6.313   9.985  0.00  0.00    +0.000 HD
BRANCH  11  13
ATOM     13  C   UNL     1      44.508   4.638   9.516  0.00  0.00    +0.000 C 
BRANCH  13  14
ATOM     14  C   UNL     1      45.348   3.728   8.655  0.00  0.00    +0.000 A 
ATOM     15  C   UNL     1      45.440   2.370   8.953  0.00  0.00    +0.000 A 
ATOM     16  C   UNL     1      46.219   1.553   8.140  0.00  0.00    +0.000 A 
ATOM     17  C   UNL     1      46.891   2.114   7.061  0.00  0.00    +0.000 A 
ATOM     18  C   UNL     1      46.763   3.476   6.845  0.00  0.00    +0.000 A 
ATOM     19  N   UNL     1      46.015   4.295   7.615  0.00  0.00    +0.000 NA
ENDBRANCH  13  14
ENDBRANCH  11  13
ENDBRANCH   6   9
ENDBRANCH   2   3
BRANCH   2  20
ATOM     20  N   UNL     1      49.850   9.198  14.420  0.00  0.00    +0.000 NA
ATOM     21  H   UNL     1      50.056   9.775  13.607  0.00  0.00    +0.000 HD
BRANCH  20  22
ATOM     22  C   UNL     1      50.611   9.711  15.560  0.00  0.00    +0.000 C 
BRANCH  22  23
ATOM     23  C   UNL     1      51.429   8.637  16.224  0.00  0.00    +0.000 A 
ATOM     24  C   UNL     1      51.655   8.671  17.608  0.00  0.00    +0.000 A 
ATOM     25  C   UNL     1      52.304   7.616  18.244  0.00  0.00    +0.000 A 
ATOM     26  C   UNL     1      52.735   6.505  17.507  0.00  0.00    +0.000 A 
ATOM     27  C   UNL     1      52.568   6.498  16.116  0.00  0.00    +0.000 A 
ATOM     28  C   UNL     1      51.921   7.557  15.480  0.00  0.00    +0.000 A 
BRANCH  26  29
ATOM     29  C   UNL     1      53.317   5.302  18.218  0.00  0.00    +0.000 C 
BRANCH  29  30
ATOM     30  N   UNL     1      52.484   4.089  18.063  0.00  0.00    +0.000 NA
ATOM     31  C   UNL     1      53.179   2.896  18.565  0.00  0.00    +0.000 C 
BRANCH  30  32
ATOM     32  C   UNL     1      51.207   4.232  18.781  0.00  0.00    +0.000 C 
BRANCH  32  33
ATOM     33  C   UNL     1      49.978   4.066  17.913  0.00  0.00    +0.000 A 
ATOM     34  C   UNL     1      49.608   2.804  17.427  0.00  0.00    +0.000 A 
ATOM     35  C   UNL     1      48.431   2.645  16.695  0.00  0.00    +0.000 A 
ATOM     36  C   UNL     1      47.615   3.745  16.438  0.00  0.00    +0.000 A 
ATOM     37  C   UNL     1      47.987   5.009  16.893  0.00  0.00    +0.000 A 
ATOM     38  C   UNL     1      49.163   5.170  17.626  0.00  0.00    +0.000 A 
ENDBRANCH  32  33
ENDBRANCH  30  32
ENDBRANCH  29  30
ENDBRANCH  26  29
ENDBRANCH  22  23
ENDBRANCH  20  22
ENDBRANCH   2  20
TORSDOF 11
ENDMDL
MODEL 4
REMARK VINA RESULT:    -6.878      4.244     10.175
REMARK INTER + INTRA:         -13.674
REMARK INTER:                 -12.804
REMARK INTRA:                  -0.870
REMARK UNBOUND:                -2.373
REMARK  Name = 
REMARK  13 active torsions:
REMARK  status: ('A' for Active; 'I' for Inactive)
REMARK    1  A    between atoms: C_1  and  C_2
REMARK    2  A    between atoms: C_2  and  N_3
REMARK    3  A    between atoms: C_2  and  C_21
REMARK    4  A    between atoms: N_3  and  C_4
REMARK    5  A    between atoms: C_4  and  C_5
REMARK    6  A    between atoms: C_8  and  C_9
REMARK    7  A    between atoms: C_9  and  N_10
REMARK    8  A    between atoms: N_10  and  C_11
REMARK    9  A    between atoms: N_10  and  C_12
REMARK   10  A    between atoms: C_12  and  C_13
REMARK   11  A    between atoms: C_24  and  C_25
REMARK   12  A    between atoms: N_27  and  C_28
REMARK   13  A    between atoms: C_28  and  C_29
REMARK                            x       y       z     vdW  Elec       q    Type
REMARK                         _______ _______ _______ _____ _____    ______ ____
ROOT
ATOM      1  C   UNL     1      47.392   5.544  18.683  0.00  0.00    +0.000 C 
ATOM      2  C   UNL     1      48.028   5.209  17.329  0.00  0.00    +0.000 C 
ENDROOT
BRANCH   2   3
ATOM      3  C   UNL     1      49.400   4.582  17.526  0.00  0.00    +0.000 A 
ATOM      4  C   UNL     1      49.572   3.199  17.346  0.00  0.00    +0.000 A 
ATOM      5  C   UNL     1      50.831   2.612  17.496  0.00  0.00    +0.000 A 
ATOM      6  C   UNL     1      51.933   3.406  17.834  0.00  0.00    +0.000 A 
ATOM      7  C   UNL     1      51.778   4.789  17.968  0.00  0.00    +0.000 A 
ATOM      8  C   UNL     1      50.522   5.373  17.821  0.00  0.00    +0.000 A 
BRANCH   6   9
ATOM      9  C   UNL     1      53.282   2.842  18.094  0.00  0.00    +0.000 C 
ATOM     10  O   UNL     1      54.272   3.563  18.051  0.00  0.00    +0.000 OA
ATOM     11  N   UNL     1      53.327   1.516  18.448  0.00  0.00    +0.000 N 
ATOM     12  H   UNL     1      52.499   0.940  18.451  0.00  0.00    +0.000 HD
BRANCH  11  13
ATOM     13  C   UNL     1      54.567   0.884  18.843  0.00  0.00    +0.000 C 
BRANCH  13  14
ATOM     14  C   UNL     1      54.547  -0.605  18.603  0.00  0.00    +0.000 A 
ATOM     15  C   UNL     1      54.949  -1.122  17.373  0.00  0.00    +0.000 A 
ATOM     16  C   UNL     1      54.924  -2.499  17.180  0.00  0.00    +0.000 A 
ATOM     17  C   UNL     1      54.490  -3.320  18.213  0.00  0.00    +0.000 A 
ATOM     18  C   UNL     1      54.087  -2.726  19.398  0.00  0.00    +0.000 A 
ATOM     19  N   UNL     1      54.101  -1.393  19.617  0.00  0.00    +0.000 NA
ENDBRANCH  13  14
ENDBRANCH  11  13
ENDBRANCH   6   9
ENDBRANCH   2   3
BRANCH   2  20
ATOM     20  N   UNL     1      48.072   6.417  16.494  0.00  0.00    +0.000 NA
ATOM     21  H   UNL     1      48.565   7.161  16.985  0.00  0.00    +0.000 HD
BRANCH  20  22
ATOM     22  C   UNL     1      48.750   6.170  15.221  0.00  0.00    +0.000 C 
BRANCH  22  23
ATOM     23  C   UNL     1      47.781   5.837  14.119  0.00  0.00    +0.000 A 
ATOM     24  C   UNL     1      46.915   4.739  14.245  0.00  0.00    +0.000 A 
ATOM     25  C   UNL     1      45.934   4.501  13.286  0.00  0.00    +0.000 A 
ATOM     26  C   UNL     1      45.797   5.359  12.187  0.00  0.00    +0.000 A 
ATOM     27  C   UNL     1      46.701   6.417  12.027  0.00  0.00    +0.000 A 
ATOM     28  C   UNL     1      47.686   6.653  12.985  0.00  0.00    +0.000 A 
BRANCH  26  29
ATOM     29  C   UNL     1      44.646   5.177  11.221  0.00  0.00    +0.000 C 
BRANCH  29  30
ATOM     30  N   UNL     1      44.513   3.782  10.748  0.00  0.00    +0.000 NA
ATOM     31  C   UNL     1      43.388   3.101  11.403  0.00  0.00    +0.000 C 
BRANCH  30  32
ATOM     32  C   UNL     1      44.311   3.737   9.291  0.00  0.00    +0.000 C 
BRANCH  32  33
ATOM     33  C   UNL     1      45.434   3.071   8.524  0.00  0.00    +0.000 A 
ATOM     34  C   UNL     1      45.641   1.687   8.612  0.00  0.00    +0.000 A 
ATOM     35  C   UNL     1      46.626   1.069   7.840  0.00  0.00    +0.000 A 
ATOM     36  C   UNL     1      47.415   1.828   6.978  0.00  0.00    +0.000 A 
ATOM     37  C   UNL     1      47.236   3.208   6.903  0.00  0.00    +0.000 A 
ATOM     38  C   UNL     1      46.252   3.829   7.672  0.00  0.00    +0.000 A 
ENDBRANCH  32  33
ENDBRANCH  30  32
ENDBRANCH  29  30
ENDBRANCH  26  29
ENDBRANCH  22  23
ENDBRANCH  20  22
ENDBRANCH   2  20
TORSDOF 11
ENDMDL
MODEL 5
REMARK VINA RESULT:    -6.865      1.714      2.565
REMARK INTER + INTRA:         -13.652
REMARK INTER:                 -10.742
REMARK INTRA:                  -2.911
REMARK UNBOUND:                -2.373
REMARK  Name = 
REMARK  13 active torsions:
REMARK  status: ('A' for Active; 'I' for Inactive)
REMARK    1  A    between atoms: C_1  and  C_2
REMARK    2  A    between atoms: C_2  and  N_3
REMARK    3  A    between atoms: C_2  and  C_21
REMARK    4  A    between atoms: N_3  and  C_4
REMARK    5  A    between atoms: C_4  and  C_5
REMARK    6  A    between atoms: C_8  and  C_9
REMARK    7  A    between atoms: C_9  and  N_10
REMARK    8  A    between atoms: N_10  and  C_11
REMARK    9  A    between atoms: N_10  and  C_12
REMARK   10  A    between atoms: C_12  and  C_13
REMARK   11  A    between atoms: C_24  and  C_25
REMARK   12  A    between atoms: N_27  and  C_28
REMARK   13  A    between atoms: C_28  and  C_29
REMARK                            x       y       z     vdW  Elec       q    Type
REMARK                         _______ _______ _______ _____ _____    ______ ____
ROOT
ATOM      1  C   UNL     1      51.970   9.209  12.666  0.00  0.00    +0.000 C 
ATOM      2  C   UNL     1      51.052   8.970  13.871  0.00  0.00    +0.000 C 
ENDROOT
BRANCH   2   3
ATOM      3  C   UNL     1      49.868   8.103  13.473  0.00  0.00    +0.000 A 
ATOM      4  C   UNL     1      49.279   7.243  14.416  0.00  0.00    +0.000 A 
ATOM      5  C   UNL     1      48.173   6.462  14.074  0.00  0.00    +0.000 A 
ATOM      6  C   UNL     1      47.646   6.529  12.780  0.00  0.00    +0.000 A 
ATOM      7  C   UNL     1      48.197   7.417  11.850  0.00  0.00    +0.000 A 
ATOM      8  C   UNL     1      49.302   8.194  12.191  0.00  0.00    +0.000 A 
BRANCH   6   9
ATOM      9  C   UNL     1      46.528   5.667  12.320  0.00  0.00    +0.000 C 
ATOM     10  O   UNL     1      46.106   4.767  13.038  0.00  0.00    +0.000 OA
ATOM     11  N   UNL     1      45.972   5.990  11.107  0.00  0.00    +0.000 N 
ATOM     12  H   UNL     1      46.355   6.720  10.525  0.00  0.00    +0.000 HD
BRANCH  11  13
ATOM     13  C   UNL     1      44.801   5.302  10.608  0.00  0.00    +0.000 C 
BRANCH  13  14
ATOM     14  C   UNL     1      45.154   4.233   9.605  0.00  0.00    +0.000 A 
ATOM     15  C   UNL     1      44.818   2.903   9.850  0.00  0.00    +0.000 A 
ATOM     16  C   UNL     1      45.153   1.938   8.906  0.00  0.00    +0.000 A 
ATOM     17  C   UNL     1      45.821   2.324   7.751  0.00  0.00    +0.000 A 
ATOM     18  C   UNL     1      46.138   3.663   7.592  0.00  0.00    +0.000 A 
ATOM     19  N   UNL     1      45.825   4.624   8.489  0.00  0.00    +0.000 NA
ENDBRANCH  13  14
ENDBRANCH  11  13
ENDBRANCH   6   9
ENDBRANCH   2   3
BRANCH   2  20
ATOM     20  N   UNL     1      50.644  10.262  14.440  0.00  0.00    +0.000 NA
ATOM     21  H   UNL     1      49.631  10.359  14.390  0.00  0.00    +0.000 HD
BRANCH  20  22
ATOM     22  C   UNL     1      51.055  10.390  15.839  0.00  0.00    +0.000 C 
BRANCH  22  23
ATOM     23  C   UNL     1      50.126   9.660  16.771  0.00  0.00    +0.000 A 
ATOM     24  C   UNL     1      50.616   8.646  17.609  0.00  0.00    +0.000 A 
ATOM     25  C   UNL     1      49.787   8.055  18.559  0.00  0.00    +0.000 A 
ATOM     26  C   UNL     1      48.455   8.469  18.691  0.00  0.00    +0.000 A 
ATOM     27  C   UNL     1      47.948   9.436  17.813  0.00  0.00    +0.000 A 
ATOM     28  C   UNL     1      48.777  10.025  16.859  0.00  0.00    +0.000 A 
BRANCH  26  29
ATOM     29  C   UNL     1      47.598   7.922  19.813  0.00  0.00    +0.000 C 
BRANCH  29  30
ATOM     30  N   UNL     1      47.719   6.455  19.959  0.00  0.00    +0.000 NA
ATOM     31  C   UNL     1      47.265   6.011  21.284  0.00  0.00    +0.000 C 
BRANCH  30  32
ATOM     32  C   UNL     1      46.931   5.757  18.929  0.00  0.00    +0.000 C 
BRANCH  32  33
ATOM     33  C   UNL     1      47.709   4.730  18.135  0.00  0.00    +0.000 A 
ATOM     34  C   UNL     1      48.968   4.290  18.569  0.00  0.00    +0.000 A 
ATOM     35  C   UNL     1      49.644   3.284  17.876  0.00  0.00    +0.000 A 
ATOM     36  C   UNL     1      49.071   2.714  16.741  0.00  0.00    +0.000 A 
ATOM     37  C   UNL     1      47.832   3.162  16.285  0.00  0.00    +0.000 A 
ATOM     38  C   UNL     1      47.155   4.167  16.976  0.00  0.00    +0.000 A 
ENDBRANCH  32  33
ENDBRANCH  30  32
ENDBRANCH  29  30
ENDBRANCH  26  29
ENDBRANCH  22  23
ENDBRANCH  20  22
ENDBRANCH   2  20
TORSDOF 11
ENDMDL
MODEL 6
REMARK VINA RESULT:    -6.752      2.069      5.300
REMARK INTER + INTRA:         -13.467
REMARK INTER:                 -10.512
REMARK INTRA:                  -2.955
REMARK UNBOUND:                -2.373
REMARK  Name = 
REMARK  13 active torsions:
REMARK  status: ('A' for Active; 'I' for Inactive)
REMARK    1  A    between atoms: C_1  and  C_2
REMARK    2  A    between atoms: C_2  and  N_3
REMARK    3  A    between atoms: C_2  and  C_21
REMARK    4  A    between atoms: N_3  and  C_4
REMARK    5  A    between atoms: C_4  and  C_5
REMARK    6  A    between atoms: C_8  and  C_9
REMARK    7  A    between atoms: C_9  and  N_10
REMARK    8  A    between atoms: N_10  and  C_11
REMARK    9  A    between atoms: N_10  and  C_12
REMARK   10  A    between atoms: C_12  and  C_13
REMARK   11  A    between atoms: C_24  and  C_25
REMARK   12  A    between atoms: N_27  and  C_28
REMARK   13  A    between atoms: C_28  and  C_29
REMARK                            x       y       z     vdW  Elec       q    Type
REMARK                         _______ _______ _______ _____ _____    ______ ____
ROOT
ATOM      1  C   UNL     1      47.456   3.408  17.646  0.00  0.00    +0.000 C 
ATOM      2  C   UNL     1      48.208   4.506  16.884  0.00  0.00    +0.000 C 
ENDROOT
BRANCH   2   3
ATOM      3  C   UNL     1      47.588   4.720  15.512  0.00  0.00    +0.000 A 
ATOM      4  C   UNL     1      47.635   5.989  14.911  0.00  0.00    +0.000 A 
ATOM      5  C   UNL     1      47.096   6.196  13.639  0.00  0.00    +0.000 A 
ATOM      6  C   UNL     1      46.497   5.132  12.956  0.00  0.00    +0.000 A 
ATOM      7  C   UNL     1      46.488   3.856  13.527  0.00  0.00    +0.000 A 
ATOM      8  C   UNL     1      47.024   3.651  14.797  0.00  0.00    +0.000 A 
BRANCH   6   9
ATOM      9  C   UNL     1      45.828   5.295  11.640  0.00  0.00    +0.000 C 
ATOM     10  O   UNL     1      46.095   6.254  10.926  0.00  0.00    +0.000 OA
ATOM     11  N   UNL     1      44.975   4.286  11.264  0.00  0.00    +0.000 N 
ATOM     12  H   UNL     1      44.755   3.520  11.882  0.00  0.00    +0.000 HD
BRANCH  11  13
ATOM     13  C   UNL     1      44.359   4.270   9.955  0.00  0.00    +0.000 C 
BRANCH  13  14
ATOM     14  C   UNL     1      45.211   3.560   8.934  0.00  0.00    +0.000 A 
ATOM     15  C   UNL     1      45.409   2.184   9.021  0.00  0.00    +0.000 A 
ATOM     16  C   UNL     1      46.197   1.555   8.063  0.00  0.00    +0.000 A 
ATOM     17  C   UNL     1      46.773   2.315   7.053  0.00  0.00    +0.000 A 
ATOM     18  C   UNL     1      46.545   3.682   7.050  0.00  0.00    +0.000 A 
ATOM     19  N   UNL     1      45.784   4.322   7.964  0.00  0.00    +0.000 NA
ENDBRANCH  13  14
ENDBRANCH  11  13
ENDBRANCH   6   9
ENDBRANCH   2   3
BRANCH   2  20
ATOM     20  N   UNL     1      49.635   4.165  16.814  0.00  0.00    +0.000 NA
ATOM     21  H   UNL     1      49.971   4.269  15.859  0.00  0.00    +0.000 HD
BRANCH  20  22
ATOM     22  C   UNL     1      50.439   5.022  17.687  0.00  0.00    +0.000 C 
BRANCH  22  23
ATOM     23  C   UNL     1      50.655   6.388  17.094  0.00  0.00    +0.000 A 
ATOM     24  C   UNL     1      49.877   7.476  17.517  0.00  0.00    +0.000 A 
ATOM     25  C   UNL     1      50.156   8.762  17.063  0.00  0.00    +0.000 A 
ATOM     26  C   UNL     1      51.223   8.984  16.181  0.00  0.00    +0.000 A 
ATOM     27  C   UNL     1      51.960   7.891  15.708  0.00  0.00    +0.000 A 
ATOM     28  C   UNL     1      51.677   6.603  16.161  0.00  0.00    +0.000 A 
BRANCH  26  29
ATOM     29  C   UNL     1      51.608  10.397  15.798  0.00  0.00    +0.000 C 
BRANCH  29  30
ATOM     30  N   UNL     1      50.543  11.095  15.045  0.00  0.00    +0.000 NA
ATOM     31  C   UNL     1      50.335  12.457  15.552  0.00  0.00    +0.000 C 
BRANCH  30  32
ATOM     32  C   UNL     1      50.873  11.167  13.612  0.00  0.00    +0.000 C 
BRANCH  32  33
ATOM     33  C   UNL     1      50.299  10.040  12.780  0.00  0.00    +0.000 A 
ATOM     34  C   UNL     1      51.117   8.997  12.323  0.00  0.00    +0.000 A 
ATOM     35  C   UNL     1      50.567   7.920  11.625  0.00  0.00    +0.000 A 
ATOM     36  C   UNL     1      49.197   7.879  11.374  0.00  0.00    +0.000 A 
ATOM     37  C   UNL     1      48.378   8.924  11.799  0.00  0.00    +0.000 A 
ATOM     38  C   UNL     1      48.926  10.000  12.497  0.00  0.00    +0.000 A 
ENDBRANCH  32  33
ENDBRANCH  30  32
ENDBRANCH  29  30
ENDBRANCH  26  29
ENDBRANCH  22  23
ENDBRANCH  20  22
ENDBRANCH   2  20
TORSDOF 11
ENDMDL
MODEL 7
REMARK VINA RESULT:    -6.444      2.034      3.826
REMARK INTER + INTRA:         -12.961
REMARK INTER:                 -10.897
REMARK INTRA:                  -2.064
REMARK UNBOUND:                -2.373
REMARK  Name = 
REMARK  13 active torsions:
REMARK  status: ('A' for Active; 'I' for Inactive)
REMARK    1  A    between atoms: C_1  and  C_2
REMARK    2  A    between atoms: C_2  and  N_3
REMARK    3  A    between atoms: C_2  and  C_21
REMARK    4  A    between atoms: N_3  and  C_4
REMARK    5  A    between atoms: C_4  and  C_5
REMARK    6  A    between atoms: C_8  and  C_9
REMARK    7  A    between atoms: C_9  and  N_10
REMARK    8  A    between atoms: N_10  and  C_11
REMARK    9  A    between atoms: N_10  and  C_12
REMARK   10  A    between atoms: C_12  and  C_13
REMARK   11  A    between atoms: C_24  and  C_25
REMARK   12  A    between atoms: N_27  and  C_28
REMARK   13  A    between atoms: C_28  and  C_29
REMARK                            x       y       z     vdW  Elec       q    Type
REMARK                         _______ _______ _______ _____ _____    ______ ____
ROOT
ATOM      1  C   UNL     1      48.710   4.985  16.852  0.00  0.00    +0.000 C 
ATOM      2  C   UNL     1      48.607   6.149  15.861  0.00  0.00    +0.000 C 
ENDROOT
BRANCH   2   3
ATOM      3  C   UNL     1      47.710   5.774  14.691  0.00  0.00    +0.000 A 
ATOM      4  C   UNL     1      47.524   6.677  13.631  0.00  0.00    +0.000 A 
ATOM      5  C   UNL     1      46.726   6.336  12.536  0.00  0.00    +0.000 A 
ATOM      6  C   UNL     1      46.100   5.086  12.494  0.00  0.00    +0.000 A 
ATOM      7  C   UNL     1      46.318   4.164  13.522  0.00  0.00    +0.000 A 
ATOM      8  C   UNL     1      47.112   4.506  14.615  0.00  0.00    +0.000 A 
BRANCH   6   9
ATOM      9  C   UNL     1      45.170   4.687  11.406  0.00  0.00    +0.000 C 
ATOM     10  O   UNL     1      44.438   5.520  10.883  0.00  0.00    +0.000 OA
ATOM     11  N   UNL     1      45.245   3.380  10.992  0.00  0.00    +0.000 N 
ATOM     12  H   UNL     1      45.839   2.710  11.458  0.00  0.00    +0.000 HD
BRANCH  11  13
ATOM     13  C   UNL     1      44.479   2.903   9.862  0.00  0.00    +0.000 C 
BRANCH  13  14
ATOM     14  C   UNL     1      45.353   2.605   8.669  0.00  0.00    +0.000 A 
ATOM     15  C   UNL     1      45.518   3.558   7.666  0.00  0.00    +0.000 A 
ATOM     16  C   UNL     1      46.332   3.258   6.579  0.00  0.00    +0.000 A 
ATOM     17  C   UNL     1      46.949   2.015   6.517  0.00  0.00    +0.000 A 
ATOM     18  C   UNL     1      46.716   1.115   7.545  0.00  0.00    +0.000 A 
ATOM     19  N   UNL     1      45.933   1.377   8.614  0.00  0.00    +0.000 NA
ENDBRANCH  13  14
ENDBRANCH  11  13
ENDBRANCH   6   9
ENDBRANCH   2   3
BRANCH   2  20
ATOM     20  N   UNL     1      49.954   6.552  15.435  0.00  0.00    +0.000 NA
ATOM     21  H   UNL     1      49.894   7.336  14.787  0.00  0.00    +0.000 HD
BRANCH  20  22
ATOM     22  C   UNL     1      50.784   6.950  16.572  0.00  0.00    +0.000 C 
BRANCH  22  23
ATOM     23  C   UNL     1      50.408   8.310  17.098  0.00  0.00    +0.000 A 
ATOM     24  C   UNL     1      49.599   9.166  16.336  0.00  0.00    +0.000 A 
ATOM     25  C   UNL     1      49.148  10.370  16.868  0.00  0.00    +0.000 A 
ATOM     26  C   UNL     1      49.494  10.739  18.175  0.00  0.00    +0.000 A 
ATOM     27  C   UNL     1      50.355   9.916  18.914  0.00  0.00    +0.000 A 
ATOM     28  C   UNL     1      50.809   8.712  18.378  0.00  0.00    +0.000 A 
BRANCH  26  29
ATOM     29  C   UNL     1      48.892  11.981  18.798  0.00  0.00    +0.000 C 
BRANCH  29  30
ATOM     30  N   UNL     1      48.067  11.679  19.988  0.00  0.00    +0.000 NA
ATOM     31  C   UNL     1      47.499  12.904  20.567  0.00  0.00    +0.000 C 
BRANCH  30  32
ATOM     32  C   UNL     1      46.968  10.761  19.647  0.00  0.00    +0.000 C 
BRANCH  32  33
ATOM     33  C   UNL     1      47.180   9.334  20.106  0.00  0.00    +0.000 A 
ATOM     34  C   UNL     1      47.306   9.028  21.468  0.00  0.00    +0.000 A 
ATOM     35  C   UNL     1      47.420   7.703  21.888  0.00  0.00    +0.000 A 
ATOM     36  C   UNL     1      47.414   6.671  20.951  0.00  0.00    +0.000 A 
ATOM     37  C   UNL     1      47.317   6.964  19.592  0.00  0.00    +0.000 A 
ATOM     38  C   UNL     1      47.202   8.289  19.170  0.00  0.00    +0.000 A 
ENDBRANCH  32  33
ENDBRANCH  30  32
ENDBRANCH  29  30
ENDBRANCH  26  29
ENDBRANCH  22  23
ENDBRANCH  20  22
ENDBRANCH   2  20
TORSDOF 11
ENDMDL
MODEL 8
REMARK VINA RESULT:    -6.340      3.978      8.793
REMARK INTER + INTRA:         -12.790
REMARK INTER:                 -11.516
REMARK INTRA:                  -1.273
REMARK UNBOUND:                -2.373
REMARK  Name = 
REMARK  13 active torsions:
REMARK  status: ('A' for Active; 'I' for Inactive)
REMARK    1  A    between atoms: C_1  and  C_2
REMARK    2  A    between atoms: C_2  and  N_3
REMARK    3  A    between atoms: C_2  and  C_21
REMARK    4  A    between atoms: N_3  and  C_4
REMARK    5  A    between atoms: C_4  and  C_5
REMARK    6  A    between atoms: C_8  and  C_9
REMARK    7  A    between atoms: C_9  and  N_10
REMARK    8  A    between atoms: N_10  and  C_11
REMARK    9  A    between atoms: N_10  and  C_12
REMARK   10  A    between atoms: C_12  and  C_13
REMARK   11  A    between atoms: C_24  and  C_25
REMARK   12  A    between atoms: N_27  and  C_28
REMARK   13  A    between atoms: C_28  and  C_29
REMARK                            x       y       z     vdW  Elec       q    Type
REMARK                         _______ _______ _______ _____ _____    ______ ____
ROOT
ATOM      1  C   UNL     1      48.763   9.955  16.305  0.00  0.00    +0.000 C 
ATOM      2  C   UNL     1      49.093   8.915  15.228  0.00  0.00    +0.000 C 
ENDROOT
BRANCH   2   3
ATOM      3  C   UNL     1      49.262   9.586  13.874  0.00  0.00    +0.000 A 
ATOM      4  C   UNL     1      50.482   9.481  13.186  0.00  0.00    +0.000 A 
ATOM      5  C   UNL     1      50.644  10.068  11.929  0.00  0.00    +0.000 A 
ATOM      6  C   UNL     1      49.585  10.774  11.348  0.00  0.00    +0.000 A 
ATOM      7  C   UNL     1      48.353  10.843  12.006  0.00  0.00    +0.000 A 
ATOM      8  C   UNL     1      48.193  10.259  13.261  0.00  0.00    +0.000 A 
BRANCH   6   9
ATOM      9  C   UNL     1      49.710  11.496  10.057  0.00  0.00    +0.000 C 
ATOM     10  O   UNL     1      50.717  11.364   9.371  0.00  0.00    +0.000 OA
ATOM     11  N   UNL     1      48.621  12.234   9.666  0.00  0.00    +0.000 N 
ATOM     12  H   UNL     1      47.814  12.345  10.262  0.00  0.00    +0.000 HD
BRANCH  11  13
ATOM     13  C   UNL     1      48.574  12.883   8.374  0.00  0.00    +0.000 C 
BRANCH  13  14
ATOM     14  C   UNL     1      47.303  12.568   7.625  0.00  0.00    +0.000 A 
ATOM     15  C   UNL     1      46.163  12.166   8.318  0.00  0.00    +0.000 A 
ATOM     16  C   UNL     1      45.004  11.886   7.603  0.00  0.00    +0.000 A 
ATOM     17  C   UNL     1      45.016  12.004   6.219  0.00  0.00    +0.000 A 
ATOM     18  C   UNL     1      46.196  12.390   5.604  0.00  0.00    +0.000 A 
ATOM     19  N   UNL     1      47.338  12.670   6.270  0.00  0.00    +0.000 NA
ENDBRANCH  13  14
ENDBRANCH  11  13
ENDBRANCH   6   9
ENDBRANCH   2   3
BRANCH   2  20
ATOM     20  N   UNL     1      48.056   7.873  15.219  0.00  0.00    +0.000 NA
ATOM     21  H   UNL     1      47.195   8.244  14.822  0.00  0.00    +0.000 HD
BRANCH  20  22
ATOM     22  C   UNL     1      48.467   6.708  14.434  0.00  0.00    +0.000 C 
BRANCH  22  23
ATOM     23  C   UNL     1      47.390   6.257  13.485  0.00  0.00    +0.000 A 
ATOM     24  C   UNL     1      47.138   6.973  12.305  0.00  0.00    +0.000 A 
ATOM     25  C   UNL     1      46.230   6.491  11.367  0.00  0.00    +0.000 A 
ATOM     26  C   UNL     1      45.560   5.280  11.589  0.00  0.00    +0.000 A 
ATOM     27  C   UNL     1      45.762   4.597  12.795  0.00  0.00    +0.000 A 
ATOM     28  C   UNL     1      46.669   5.083  13.736  0.00  0.00    +0.000 A 
BRANCH  26  29
ATOM     29  C   UNL     1      44.678   4.692  10.508  0.00  0.00    +0.000 C 
BRANCH  29  30
ATOM     30  N   UNL     1      44.576   3.219  10.595  0.00  0.00    +0.000 NA
ATOM     31  C   UNL     1      43.533   2.810  11.544  0.00  0.00    +0.000 C 
BRANCH  30  32
ATOM     32  C   UNL     1      44.275   2.634   9.278  0.00  0.00    +0.000 C 
BRANCH  32  33
ATOM     33  C   UNL     1      45.464   2.541   8.346  0.00  0.00    +0.000 A 
ATOM     34  C   UNL     1      46.186   1.345   8.220  0.00  0.00    +0.000 A 
ATOM     35  C   UNL     1      47.230   1.243   7.301  0.00  0.00    +0.000 A 
ATOM     36  C   UNL     1      47.567   2.335   6.503  0.00  0.00    +0.000 A 
ATOM     37  C   UNL     1      46.875   3.537   6.639  0.00  0.00    +0.000 A 
ATOM     38  C   UNL     1      45.829   3.641   7.557  0.00  0.00    +0.000 A 
ENDBRANCH  32  33
ENDBRANCH  30  32
ENDBRANCH  29  30
ENDBRANCH  26  29
ENDBRANCH  22  23
ENDBRANCH  20  22
ENDBRANCH   2  20
TORSDOF 11
ENDMDL
MODEL 9
REMARK VINA RESULT:    -6.317      1.822      3.193
REMARK INTER + INTRA:         -12.753
REMARK INTER:                 -10.442
REMARK INTRA:                  -2.311
REMARK UNBOUND:                -2.373
REMARK  Name = 
REMARK  13 active torsions:
REMARK  status: ('A' for Active; 'I' for Inactive)
REMARK    1  A    between atoms: C_1  and  C_2
REMARK    2  A    between atoms: C_2  and  N_3
REMARK    3  A    between atoms: C_2  and  C_21
REMARK    4  A    between atoms: N_3  and  C_4
REMARK    5  A    between atoms: C_4  and  C_5
REMARK    6  A    between atoms: C_8  and  C_9
REMARK    7  A    between atoms: C_9  and  N_10
REMARK    8  A    between atoms: N_10  and  C_11
REMARK    9  A    between atoms: N_10  and  C_12
REMARK   10  A    between atoms: C_12  and  C_13
REMARK   11  A    between atoms: C_24  and  C_25
REMARK   12  A    between atoms: N_27  and  C_28
REMARK   13  A    between atoms: C_28  and  C_29
REMARK                            x       y       z     vdW  Elec       q    Type
REMARK                         _______ _______ _______ _____ _____    ______ ____
ROOT
ATOM      1  C   UNL     1      48.137  11.822  13.000  0.00  0.00    +0.000 C 
ATOM      2  C   UNL     1      49.087  10.684  12.608  0.00  0.00    +0.000 C 
ENDROOT
BRANCH   2   3
ATOM      3  C   UNL     1      48.302   9.421  12.293  0.00  0.00    +0.000 A 
ATOM      4  C   UNL     1      48.982   8.233  11.974  0.00  0.00    +0.000 A 
ATOM      5  C   UNL     1      48.276   7.057  11.710  0.00  0.00    +0.000 A 
ATOM      6  C   UNL     1      46.878   7.059  11.756  0.00  0.00    +0.000 A 
ATOM      7  C   UNL     1      46.196   8.225  12.117  0.00  0.00    +0.000 A 
ATOM      8  C   UNL     1      46.901   9.398  12.378  0.00  0.00    +0.000 A 
BRANCH   6   9
ATOM      9  C   UNL     1      46.059   5.871  11.403  0.00  0.00    +0.000 C 
ATOM     10  O   UNL     1      45.640   5.127  12.282  0.00  0.00    +0.000 OA
ATOM     11  N   UNL     1      45.753   5.719  10.073  0.00  0.00    +0.000 N 
ATOM     12  H   UNL     1      46.132   6.333   9.368  0.00  0.00    +0.000 HD
BRANCH  11  13
ATOM     13  C   UNL     1      44.863   4.672   9.620  0.00  0.00    +0.000 C 
BRANCH  13  14
ATOM     14  C   UNL     1      45.547   3.712   8.680  0.00  0.00    +0.000 A 
ATOM     15  C   UNL     1      45.529   2.343   8.940  0.00  0.00    +0.000 A 
ATOM     16  C   UNL     1      46.166   1.481   8.054  0.00  0.00    +0.000 A 
ATOM     17  C   UNL     1      46.809   2.007   6.940  0.00  0.00    +0.000 A 
ATOM     18  C   UNL     1      46.798   3.381   6.765  0.00  0.00    +0.000 A 
ATOM     19  N   UNL     1      46.188   4.244   7.606  0.00  0.00    +0.000 NA
ENDBRANCH  13  14
ENDBRANCH  11  13
ENDBRANCH   6   9
ENDBRANCH   2   3
BRANCH   2  20
ATOM     20  N   UNL     1      50.079  10.484  13.674  0.00  0.00    +0.000 NA
ATOM     21  H   UNL     1      50.701  11.288  13.726  0.00  0.00    +0.000 HD
BRANCH  20  22
ATOM     22  C   UNL     1      49.441  10.304  14.979  0.00  0.00    +0.000 C 
BRANCH  22  23
ATOM     23  C   UNL     1      49.548   8.886  15.470  0.00  0.00    +0.000 A 
ATOM     24  C   UNL     1      50.744   8.169  15.311  0.00  0.00    +0.000 A 
ATOM     25  C   UNL     1      50.889   6.904  15.873  0.00  0.00    +0.000 A 
ATOM     26  C   UNL     1      49.841   6.334  16.609  0.00  0.00    +0.000 A 
ATOM     27  C   UNL     1      48.624   7.020  16.714  0.00  0.00    +0.000 A 
ATOM     28  C   UNL     1      48.480   8.286  16.148  0.00  0.00    +0.000 A 
BRANCH  26  29
ATOM     29  C   UNL     1      50.049   5.020  17.332  0.00  0.00    +0.000 C 
BRANCH  29  30
ATOM     30  N   UNL     1      48.777   4.382  17.733  0.00  0.00    +0.000 NA
ATOM     31  C   UNL     1      48.541   3.141  16.984  0.00  0.00    +0.000 C 
BRANCH  30  32
ATOM     32  C   UNL     1      48.773   4.075  19.173  0.00  0.00    +0.000 C 
BRANCH  32  33
ATOM     33  C   UNL     1      48.574   5.278  20.070  0.00  0.00    +0.000 A 
ATOM     34  C   UNL     1      49.410   5.497  21.174  0.00  0.00    +0.000 A 
ATOM     35  C   UNL     1      49.272   6.650  21.948  0.00  0.00    +0.000 A 
ATOM     36  C   UNL     1      48.295   7.591  21.630  0.00  0.00    +0.000 A 
ATOM     37  C   UNL     1      47.440   7.371  20.551  0.00  0.00    +0.000 A 
ATOM     38  C   UNL     1      47.576   6.219  19.775  0.00  0.00    +0.000 A 
ENDBRANCH  32  33
ENDBRANCH  30  32
ENDBRANCH  29  30
ENDBRANCH  26  29
ENDBRANCH  22  23
ENDBRANCH  20  22
ENDBRANCH   2  20
TORSDOF 11
ENDMDL
