MODEL 1
REMARK VINA RESULT:    -7.946      0.000      0.000
REMARK INTER + INTRA:         -10.993
REMARK INTER:                 -10.269
REMARK INTRA:                  -0.724
REMARK UNBOUND:                -0.724
REMARK  Name = 
REMARK  5 active torsions:
REMARK  status: ('A' for Active; 'I' for Inactive)
REMARK    1  A    between atoms: C_2  and  C_4
REMARK    2  A    between atoms: C_8  and  C_9
REMARK    3  A    between atoms: C_9  and  C_10
REMARK    4  A    between atoms: C_10  and  C_11
REMARK    5  A    between atoms: C_15  and  N_16
REMARK                            x       y       z     vdW  Elec       q    Type
REMARK                         _______ _______ _______ _____ _____    ______ ____
ROOT
ATOM      1  C   UNL     1      43.684   3.894  11.427  0.00  0.00    +0.000 C 
ENDROOT
BRANCH   1   2
ATOM      2  C   UNL     1      44.854   4.340  12.283  0.00  0.00    +0.000 A 
ATOM      3  C   UNL     1      45.761   3.429  12.840  0.00  0.00    +0.000 A 
ATOM      4  C   UNL     1      46.860   3.879  13.558  0.00  0.00    +0.000 A 
ATOM      5  C   UNL     1      47.085   5.246  13.703  0.00  0.00    +0.000 A 
ATOM      6  C   UNL     1      46.223   6.203  13.145  0.00  0.00    +0.000 A 
ATOM      7  C   UNL     1      45.100   5.719  12.455  0.00  0.00    +0.000 A 
BRANCH   6   8
ATOM      8  N   UNL     1      46.495   7.548  13.285  0.00  0.00    +0.000 N 
ATOM      9  C   UNL     1      45.534   8.616  12.980  0.00  0.00    +0.000 C 
ATOM     10  C   UNL     1      46.063   9.503  11.845  0.00  0.00    +0.000 C 
ATOM     11  O   UNL     1      47.370  10.023  12.150  0.00  0.00    +0.000 OA
ATOM     12  C   UNL     1      48.299   8.945  12.343  0.00  0.00    +0.000 C 
ATOM     13  C   UNL     1      47.875   8.021  13.498  0.00  0.00    +0.000 C 
ENDBRANCH   6   8
ENDBRANCH   1   2
BRANCH   1  14
ATOM     14  C   UNL     1      43.994   2.725  10.483  0.00  0.00    +0.000 C 
BRANCH  14  19
ATOM     15  C   UNL     1      46.553   2.438   7.692  0.00  0.00    +0.000 A 
ATOM     16  C   UNL     1      46.651   3.779   7.351  0.00  0.00    +0.000 A 
ATOM     17  N   UNL     1      45.945   4.766   7.959  0.00  0.00    +0.000 NA
ATOM     18  C   UNL     1      45.114   4.394   8.958  0.00  0.00    +0.000 A 
ATOM     19  C   UNL     1      44.954   3.080   9.386  0.00  0.00    +0.000 A 
ATOM     20  C   UNL     1      45.704   2.087   8.741  0.00  0.00    +0.000 A 
BRANCH  15  22
ATOM     21  N   UNL     1      48.483   1.887   6.323  0.00  0.00    +0.000 N 
ATOM     22  C   UNL     1      47.346   1.445   6.942  0.00  0.00    +0.000 C 
ATOM     23  O   UNL     1      47.025   0.263   6.910  0.00  0.00    +0.000 OA
ATOM     24  H   UNL     1      49.071   1.173   5.910  0.00  0.00    +0.000 HD
ATOM     25  H   UNL     1      48.913   2.773   6.546  0.00  0.00    +0.000 HD
ENDBRANCH  15  22
ENDBRANCH  14  19
ENDBRANCH   1  14
TORSDOF 5
ENDMDL
MODEL 2
REMARK VINA RESULT:    -7.505      1.477      1.993
REMARK INTER + INTRA:         -10.422
REMARK INTER:                  -9.632
REMARK INTRA:                  -0.789
REMARK UNBOUND:                -0.724
REMARK  Name = 
REMARK  5 active torsions:
REMARK  status: ('A' for Active; 'I' for Inactive)
REMARK    1  A    between atoms: C_2  and  C_4
REMARK    2  A    between atoms: C_8  and  C_9
REMARK    3  A    between atoms: C_9  and  C_10
REMARK    4  A    between atoms: C_10  and  C_11
REMARK    5  A    between atoms: C_15  and  N_16
REMARK                            x       y       z     vdW  Elec       q    Type
REMARK                         _______ _______ _______ _____ _____    ______ ____
ROOT
ATOM      1  C   UNL     1      43.769   4.387  10.626  0.00  0.00    +0.000 C 
ENDROOT
BRANCH   1   2
ATOM      2  C   UNL     1      44.872   4.660  11.630  0.00  0.00    +0.000 A 
ATOM      3  C   UNL     1      45.354   3.671  12.497  0.00  0.00    +0.000 A 
ATOM      4  C   UNL     1      46.413   3.939  13.352  0.00  0.00    +0.000 A 
ATOM      5  C   UNL     1      47.025   5.190  13.332  0.00  0.00    +0.000 A 
ATOM      6  C   UNL     1      46.599   6.211  12.467  0.00  0.00    +0.000 A 
ATOM      7  C   UNL     1      45.502   5.922  11.638  0.00  0.00    +0.000 A 
BRANCH   6   8
ATOM      8  N   UNL     1      47.249   7.427  12.454  0.00  0.00    +0.000 N 
ATOM      9  C   UNL     1      48.506   7.678  11.736  0.00  0.00    +0.000 C 
ATOM     10  C   UNL     1      49.616   8.064  12.722  0.00  0.00    +0.000 C 
ATOM     11  O   UNL     1      49.229   9.183  13.539  0.00  0.00    +0.000 OA
ATOM     12  C   UNL     1      48.052   8.858  14.298  0.00  0.00    +0.000 C 
ATOM     13  C   UNL     1      46.864   8.499  13.389  0.00  0.00    +0.000 C 
ENDBRANCH   6   8
ENDBRANCH   1   2
BRANCH   1  14
ATOM     14  C   UNL     1      44.200   4.504   9.158  0.00  0.00    +0.000 C 
BRANCH  14  19
ATOM     15  C   UNL     1      46.614   2.318   7.205  0.00  0.00    +0.000 A 
ATOM     16  C   UNL     1      46.359   1.105   7.828  0.00  0.00    +0.000 A 
ATOM     17  N   UNL     1      45.464   0.948   8.837  0.00  0.00    +0.000 NA
ATOM     18  C   UNL     1      44.790   2.051   9.229  0.00  0.00    +0.000 A 
ATOM     19  C   UNL     1      44.960   3.309   8.660  0.00  0.00    +0.000 A 
ATOM     20  C   UNL     1      45.886   3.434   7.616  0.00  0.00    +0.000 A 
BRANCH  15  22
ATOM     21  N   UNL     1      47.486   3.348   5.185  0.00  0.00    +0.000 N 
ATOM     22  C   UNL     1      47.631   2.378   6.137  0.00  0.00    +0.000 C 
ATOM     23  O   UNL     1      48.591   1.616   6.125  0.00  0.00    +0.000 OA
ATOM     24  H   UNL     1      48.251   3.445   4.528  0.00  0.00    +0.000 HD
ATOM     25  H   UNL     1      46.876   4.143   5.309  0.00  0.00    +0.000 HD
ENDBRANCH  15  22
ENDBRANCH  14  19
ENDBRANCH   1  14
TORSDOF 5
ENDMDL
MODEL 3
REMARK VINA RESULT:    -7.342      2.884      7.239
REMARK INTER + INTRA:         -10.211
REMARK INTER:                  -9.399
REMARK INTRA:                  -0.812
REMARK UNBOUND:                -0.724
REMARK  Name = 
REMARK  5 active torsions:
REMARK  status: ('A' for Active; 'I' for Inactive)
REMARK    1  A    between atoms: C_2  and  C_4
REMARK    2  A    between atoms: C_8  and  C_9
REMARK    3  A    between atoms: C_9  and  C_10
REMARK    4  A    between atoms: C_10  and  C_11
REMARK    5  A    between atoms: C_15  and  N_16
REMARK                            x       y       z     vdW  Elec       q    Type
REMARK                         _______ _______ _______ _____ _____    ______ ____
ROOT
ATOM      1  C   UNL     1      45.551   6.334  12.722  0.00  0.00    +0.000 C 
ENDROOT
BRANCH   1   2
ATOM      2  C   UNL     1      44.908   5.048  12.241  0.00  0.00    +0.000 A 
ATOM      3  C   UNL     1      43.980   4.342  13.016  0.00  0.00    +0.000 A 
ATOM      4  C   UNL     1      43.360   3.207  12.513  0.00  0.00    +0.000 A 
ATOM      5  C   UNL     1      43.636   2.780  11.216  0.00  0.00    +0.000 A 
ATOM      6  C   UNL     1      44.540   3.462  10.386  0.00  0.00    +0.000 A 
ATOM      7  C   UNL     1      45.179   4.586  10.935  0.00  0.00    +0.000 A 
BRANCH   6   8
ATOM      8  N   UNL     1      44.765   3.026   9.097  0.00  0.00    +0.000 N 
ATOM      9  C   UNL     1      44.957   1.617   8.730  0.00  0.00    +0.000 C 
ATOM     10  C   UNL     1      46.354   1.409   8.129  0.00  0.00    +0.000 C 
ATOM     11  O   UNL     1      46.587   2.293   7.019  0.00  0.00    +0.000 OA
ATOM     12  C   UNL     1      46.484   3.661   7.445  0.00  0.00    +0.000 C 
ATOM     13  C   UNL     1      45.095   3.980   8.024  0.00  0.00    +0.000 C 
ENDBRANCH   6   8
ENDBRANCH   1   2
BRANCH   1  14
ATOM     14  C   UNL     1      47.083   6.296  12.788  0.00  0.00    +0.000 C 
BRANCH  14  19
ATOM     15  C   UNL     1      47.846   4.578  16.088  0.00  0.00    +0.000 A 
ATOM     16  C   UNL     1      48.666   5.547  16.650  0.00  0.00    +0.000 A 
ATOM     17  N   UNL     1      48.989   6.712  16.034  0.00  0.00    +0.000 NA
ATOM     18  C   UNL     1      48.461   6.920  14.807  0.00  0.00    +0.000 A 
ATOM     19  C   UNL     1      47.617   6.020  14.163  0.00  0.00    +0.000 A 
ATOM     20  C   UNL     1      47.298   4.831  14.831  0.00  0.00    +0.000 A 
BRANCH  15  22
ATOM     21  N   UNL     1      48.633   2.473  17.011  0.00  0.00    +0.000 N 
ATOM     22  C   UNL     1      47.585   3.334  16.837  0.00  0.00    +0.000 C 
ATOM     23  O   UNL     1      46.484   3.099  17.319  0.00  0.00    +0.000 OA
ATOM     24  H   UNL     1      48.463   1.683  17.620  0.00  0.00    +0.000 HD
ATOM     25  H   UNL     1      49.593   2.751  16.865  0.00  0.00    +0.000 HD
ENDBRANCH  15  22
ENDBRANCH  14  19
ENDBRANCH   1  14
TORSDOF 5
ENDMDL
MODEL 4
REMARK VINA RESULT:    -6.765      3.209      5.105
REMARK INTER + INTRA:          -9.466
REMARK INTER:                  -8.679
REMARK INTRA:                  -0.787
REMARK UNBOUND:                -0.724
REMARK  Name = 
REMARK  5 active torsions:
REMARK  status: ('A' for Active; 'I' for Inactive)
REMARK    1  A    between atoms: C_2  and  C_4
REMARK    2  A    between atoms: C_8  and  C_9
REMARK    3  A    between atoms: C_9  and  C_10
REMARK    4  A    between atoms: C_10  and  C_11
REMARK    5  A    between atoms: C_15  and  N_16
REMARK                            x       y       z     vdW  Elec       q    Type
REMARK                         _______ _______ _______ _____ _____    ______ ____
ROOT
ATOM      1  C   UNL     1      46.904   6.842  11.788  0.00  0.00    +0.000 C 
ENDROOT
BRANCH   1   2
ATOM      2  C   UNL     1      47.914   6.887  12.919  0.00  0.00    +0.000 A 
ATOM      3  C   UNL     1      49.008   7.762  12.909  0.00  0.00    +0.000 A 
ATOM      4  C   UNL     1      49.869   7.825  13.995  0.00  0.00    +0.000 A 
ATOM      5  C   UNL     1      49.632   7.037  15.119  0.00  0.00    +0.000 A 
ATOM      6  C   UNL     1      48.537   6.161  15.193  0.00  0.00    +0.000 A 
ATOM      7  C   UNL     1      47.703   6.092  14.065  0.00  0.00    +0.000 A 
BRANCH   6   8
ATOM      8  N   UNL     1      48.318   5.419  16.335  0.00  0.00    +0.000 N 
ATOM      9  C   UNL     1      49.161   5.491  17.535  0.00  0.00    +0.000 C 
ATOM     10  C   UNL     1      49.816   4.131  17.810  0.00  0.00    +0.000 C 
ATOM     11  O   UNL     1      48.835   3.083  17.902  0.00  0.00    +0.000 OA
ATOM     12  C   UNL     1      48.099   2.984  16.672  0.00  0.00    +0.000 C 
ATOM     13  C   UNL     1      47.367   4.293  16.333  0.00  0.00    +0.000 C 
ENDBRANCH   6   8
ENDBRANCH   1   2
BRANCH   1  14
ATOM     14  C   UNL     1      45.444   6.720  12.241  0.00  0.00    +0.000 C 
BRANCH  14  19
ATOM     15  C   UNL     1      44.438   3.521  10.459  0.00  0.00    +0.000 A 
ATOM     16  C   UNL     1      43.755   2.903  11.497  0.00  0.00    +0.000 A 
ATOM     17  N   UNL     1      43.602   3.448  12.730  0.00  0.00    +0.000 NA
ATOM     18  C   UNL     1      44.147   4.668  12.929  0.00  0.00    +0.000 A 
ATOM     19  C   UNL     1      44.837   5.379  11.952  0.00  0.00    +0.000 A 
ATOM     20  C   UNL     1      44.970   4.790  10.688  0.00  0.00    +0.000 A 
BRANCH  15  22
ATOM     21  N   UNL     1      44.312   3.543   8.033  0.00  0.00    +0.000 N 
ATOM     22  C   UNL     1      44.568   2.822   9.166  0.00  0.00    +0.000 C 
ATOM     23  O   UNL     1      44.932   1.654   9.106  0.00  0.00    +0.000 OA
ATOM     24  H   UNL     1      44.515   3.081   7.156  0.00  0.00    +0.000 HD
ATOM     25  H   UNL     1      44.274   4.553   8.030  0.00  0.00    +0.000 HD
ENDBRANCH  15  22
ENDBRANCH  14  19
ENDBRANCH   1  14
TORSDOF 5
ENDMDL
MODEL 5
REMARK VINA RESULT:    -6.646      3.425      7.447
REMARK INTER + INTRA:          -9.312
REMARK INTER:                  -8.348
REMARK INTRA:                  -0.963
REMARK UNBOUND:                -0.724
REMARK  Name = 
REMARK  5 active torsions:
REMARK  status: ('A' for Active; 'I' for Inactive)
REMARK    1  A    between atoms: C_2  and  C_4
REMARK    2  A    between atoms: C_8  and  C_9
REMARK    3  A    between atoms: C_9  and  C_10
REMARK    4  A    between atoms: C_10  and  C_11
REMARK    5  A    between atoms: C_15  and  N_16
REMARK                            x       y       z     vdW  Elec       q    Type
REMARK                         _______ _______ _______ _____ _____    ______ ____
ROOT
ATOM      1  C   UNL     1      48.668   6.800  13.082  0.00  0.00    +0.000 C 
ENDROOT
BRANCH   1   2
ATOM      2  C   UNL     1      47.271   7.143  12.601  0.00  0.00    +0.000 A 
ATOM      3  C   UNL     1      46.769   8.450  12.635  0.00  0.00    +0.000 A 
ATOM      4  C   UNL     1      45.513   8.736  12.121  0.00  0.00    +0.000 A 
ATOM      5  C   UNL     1      44.753   7.725  11.536  0.00  0.00    +0.000 A 
ATOM      6  C   UNL     1      45.216   6.402  11.453  0.00  0.00    +0.000 A 
ATOM      7  C   UNL     1      46.476   6.136  12.014  0.00  0.00    +0.000 A 
BRANCH   6   8
ATOM      8  N   UNL     1      44.447   5.435  10.840  0.00  0.00    +0.000 N 
ATOM      9  C   UNL     1      43.129   5.005  11.324  0.00  0.00    +0.000 C 
ATOM     10  C   UNL     1      43.160   3.519  11.707  0.00  0.00    +0.000 C 
ATOM     11  O   UNL     1      43.626   2.705  10.617  0.00  0.00    +0.000 OA
ATOM     12  C   UNL     1      44.957   3.096  10.240  0.00  0.00    +0.000 C 
ATOM     13  C   UNL     1      45.019   4.567   9.795  0.00  0.00    +0.000 C 
ENDBRANCH   6   8
ENDBRANCH   1   2
BRANCH   1  14
ATOM     14  C   UNL     1      49.086   7.506  14.379  0.00  0.00    +0.000 C 
BRANCH  14  19
ATOM     15  C   UNL     1      48.199   4.655  16.725  0.00  0.00    +0.000 A 
ATOM     16  C   UNL     1      48.189   5.357  17.922  0.00  0.00    +0.000 A 
ATOM     17  N   UNL     1      48.452   6.685  18.020  0.00  0.00    +0.000 NA
ATOM     18  C   UNL     1      48.727   7.338  16.870  0.00  0.00    +0.000 A 
ATOM     19  C   UNL     1      48.747   6.732  15.618  0.00  0.00    +0.000 A 
ATOM     20  C   UNL     1      48.463   5.362  15.552  0.00  0.00    +0.000 A 
BRANCH  15  22
ATOM     21  N   UNL     1      46.981   2.751  17.617  0.00  0.00    +0.000 N 
ATOM     22  C   UNL     1      47.926   3.205  16.739  0.00  0.00    +0.000 C 
ATOM     23  O   UNL     1      48.493   2.441  15.967  0.00  0.00    +0.000 OA
ATOM     24  H   UNL     1      46.729   1.775  17.533  0.00  0.00    +0.000 HD
ATOM     25  H   UNL     1      46.319   3.367  18.066  0.00  0.00    +0.000 HD
ENDBRANCH  15  22
ENDBRANCH  14  19
ENDBRANCH   1  14
TORSDOF 5
ENDMDL
MODEL 6
REMARK VINA RESULT:    -6.519      2.795      3.896
REMARK INTER + INTRA:          -9.148
REMARK INTER:                  -8.449
REMARK INTRA:                  -0.700
REMARK UNBOUND:                -0.724
REMARK  Name = 
REMARK  5 active torsions:
REMARK  status: ('A' for Active; 'I' for Inactive)
REMARK    1  A    between atoms: C_2  and  C_4
REMARK    2  A    between atoms: C_8  and  C_9
REMARK    3  A    between atoms: C_9  and  C_10
REMARK    4  A    between atoms: C_10  and  C_11
REMARK    5  A    between atoms: C_15  and  N_16
REMARK                            x       y       z     vdW  Elec       q    Type
REMARK                         _______ _______ _______ _____ _____    ______ ____
ROOT
ATOM      1  C   UNL     1      45.260   5.996  12.186  0.00  0.00    +0.000 C 
ENDROOT
BRANCH   1   2
ATOM      2  C   UNL     1      46.636   6.318  12.737  0.00  0.00    +0.000 A 
ATOM      3  C   UNL     1      47.538   7.145  12.055  0.00  0.00    +0.000 A 
ATOM      4  C   UNL     1      48.760   7.475  12.624  0.00  0.00    +0.000 A 
ATOM      5  C   UNL     1      49.084   7.009  13.896  0.00  0.00    +0.000 A 
ATOM      6  C   UNL     1      48.208   6.197  14.634  0.00  0.00    +0.000 A 
ATOM      7  C   UNL     1      46.994   5.850  14.019  0.00  0.00    +0.000 A 
BRANCH   6   8
ATOM      8  N   UNL     1      48.552   5.779  15.904  0.00  0.00    +0.000 N 
ATOM      9  C   UNL     1      48.075   4.531  16.514  0.00  0.00    +0.000 C 
ATOM     10  C   UNL     1      47.244   4.834  17.768  0.00  0.00    +0.000 C 
ATOM     11  O   UNL     1      47.977   5.646  18.702  0.00  0.00    +0.000 OA
ATOM     12  C   UNL     1      48.338   6.897  18.094  0.00  0.00    +0.000 C 
ATOM     13  C   UNL     1      49.216   6.697  16.846  0.00  0.00    +0.000 C 
ENDBRANCH   6   8
ENDBRANCH   1   2
BRANCH   1  14
ATOM     14  C   UNL     1      45.148   6.089  10.658  0.00  0.00    +0.000 C 
BRANCH  14  19
ATOM     15  C   UNL     1      45.691   3.182   8.275  0.00  0.00    +0.000 A 
ATOM     16  C   UNL     1      44.794   2.280   8.829  0.00  0.00    +0.000 A 
ATOM     17  N   UNL     1      44.030   2.547   9.919  0.00  0.00    +0.000 NA
ATOM     18  C   UNL     1      44.164   3.773  10.471  0.00  0.00    +0.000 A 
ATOM     19  C   UNL     1      45.023   4.754   9.985  0.00  0.00    +0.000 A 
ATOM     20  C   UNL     1      45.790   4.447   8.854  0.00  0.00    +0.000 A 
BRANCH  15  22
ATOM     21  N   UNL     1      46.892   3.758   6.243  0.00  0.00    +0.000 N 
ATOM     22  C   UNL     1      46.492   2.774   7.105  0.00  0.00    +0.000 C 
ATOM     23  O   UNL     1      46.823   1.608   6.933  0.00  0.00    +0.000 OA
ATOM     24  H   UNL     1      47.532   3.476   5.512  0.00  0.00    +0.000 HD
ATOM     25  H   UNL     1      46.869   4.737   6.490  0.00  0.00    +0.000 HD
ENDBRANCH  15  22
ENDBRANCH  14  19
ENDBRANCH   1  14
TORSDOF 5
ENDMDL
MODEL 7
REMARK VINA RESULT:    -6.346      4.333      7.806
REMARK INTER + INTRA:          -8.925
REMARK INTER:                  -8.029
REMARK INTRA:                  -0.896
REMARK UNBOUND:                -0.724
REMARK  Name = 
REMARK  5 active torsions:
REMARK  status: ('A' for Active; 'I' for Inactive)
REMARK    1  A    between atoms: C_2  and  C_4
REMARK    2  A    between atoms: C_8  and  C_9
REMARK    3  A    between atoms: C_9  and  C_10
REMARK    4  A    between atoms: C_10  and  C_11
REMARK    5  A    between atoms: C_15  and  N_16
REMARK                            x       y       z     vdW  Elec       q    Type
REMARK                         _______ _______ _______ _____ _____    ______ ____
ROOT
ATOM      1  C   UNL     1      49.890   7.146  15.433  0.00  0.00    +0.000 C 
ENDROOT
BRANCH   1   2
ATOM      2  C   UNL     1      49.154   7.238  14.110  0.00  0.00    +0.000 A 
ATOM      3  C   UNL     1      49.709   7.868  12.989  0.00  0.00    +0.000 A 
ATOM      4  C   UNL     1      49.036   7.870  11.776  0.00  0.00    +0.000 A 
ATOM      5  C   UNL     1      47.812   7.215  11.658  0.00  0.00    +0.000 A 
ATOM      6  C   UNL     1      47.220   6.548  12.743  0.00  0.00    +0.000 A 
ATOM      7  C   UNL     1      47.907   6.593  13.967  0.00  0.00    +0.000 A 
BRANCH   6   8
ATOM      8  N   UNL     1      46.021   5.885  12.580  0.00  0.00    +0.000 N 
ATOM      9  C   UNL     1      45.606   4.729  13.385  0.00  0.00    +0.000 C 
ATOM     10  C   UNL     1      45.427   3.494  12.493  0.00  0.00    +0.000 C 
ATOM     11  O   UNL     1      44.514   3.754  11.411  0.00  0.00    +0.000 OA
ATOM     12  C   UNL     1      45.008   4.827  10.593  0.00  0.00    +0.000 C 
ATOM     13  C   UNL     1      45.179   6.128  11.395  0.00  0.00    +0.000 C 
ENDBRANCH   6   8
ENDBRANCH   1   2
BRANCH   1  14
ATOM     14  C   UNL     1      48.985   7.194  16.671  0.00  0.00    +0.000 C 
BRANCH  14  19
ATOM     15  C   UNL     1      49.371   3.520  17.549  0.00  0.00    +0.000 A 
ATOM     16  C   UNL     1      48.701   3.518  18.764  0.00  0.00    +0.000 A 
ATOM     17  N   UNL     1      48.139   4.622  19.318  0.00  0.00    +0.000 NA
ATOM     18  C   UNL     1      48.242   5.773  18.619  0.00  0.00    +0.000 A 
ATOM     19  C   UNL     1      48.878   5.880  17.387  0.00  0.00    +0.000 A 
ATOM     20  C   UNL     1      49.441   4.719  16.840  0.00  0.00    +0.000 A 
BRANCH  15  22
ATOM     21  N   UNL     1      50.967   1.706  17.807  0.00  0.00    +0.000 N 
ATOM     22  C   UNL     1      49.971   2.265  17.055  0.00  0.00    +0.000 C 
ATOM     23  O   UNL     1      49.566   1.722  16.035  0.00  0.00    +0.000 OA
ATOM     24  H   UNL     1      51.287   0.792  17.513  0.00  0.00    +0.000 HD
ATOM     25  H   UNL     1      51.137   1.973  18.766  0.00  0.00    +0.000 HD
ENDBRANCH  15  22
ENDBRANCH  14  19
ENDBRANCH   1  14
TORSDOF 5
ENDMDL
MODEL 8
REMARK VINA RESULT:    -6.321      3.297      5.328
REMARK INTER + INTRA:          -8.892
REMARK INTER:                  -7.999
REMARK INTRA:                  -0.892
REMARK UNBOUND:                -0.724
REMARK  Name = 
REMARK  5 active torsions:
REMARK  status: ('A' for Active; 'I' for Inactive)
REMARK    1  A    between atoms: C_2  and  C_4
REMARK    2  A    between atoms: C_8  and  C_9
REMARK    3  A    between atoms: C_9  and  C_10
REMARK    4  A    between atoms: C_10  and  C_11
REMARK    5  A    between atoms: C_15  and  N_16
REMARK                            x       y       z     vdW  Elec       q    Type
REMARK                         _______ _______ _______ _____ _____    ______ ____
ROOT
ATOM      1  C   UNL     1      48.661   6.843  12.568  0.00  0.00    +0.000 C 
ENDROOT
BRANCH   1   2
ATOM      2  C   UNL     1      48.519   8.303  12.185  0.00  0.00    +0.000 A 
ATOM      3  C   UNL     1      49.597   9.057  11.704  0.00  0.00    +0.000 A 
ATOM      4  C   UNL     1      49.413  10.370  11.295  0.00  0.00    +0.000 A 
ATOM      5  C   UNL     1      48.142  10.938  11.333  0.00  0.00    +0.000 A 
ATOM      6  C   UNL     1      47.021  10.222  11.782  0.00  0.00    +0.000 A 
ATOM      7  C   UNL     1      47.244   8.907  12.223  0.00  0.00    +0.000 A 
BRANCH   6   8
ATOM      8  N   UNL     1      45.773  10.809  11.776  0.00  0.00    +0.000 N 
ATOM      9  C   UNL     1      44.524  10.086  12.050  0.00  0.00    +0.000 C 
ATOM     10  C   UNL     1      43.604  10.126  10.823  0.00  0.00    +0.000 C 
ATOM     11  O   UNL     1      43.362  11.476  10.390  0.00  0.00    +0.000 OA
ATOM     12  C   UNL     1      44.601  12.114  10.039  0.00  0.00    +0.000 C 
ATOM     13  C   UNL     1      45.578  12.163  11.226  0.00  0.00    +0.000 C 
ENDBRANCH   6   8
ENDBRANCH   1   2
BRANCH   1  14
ATOM     14  C   UNL     1      47.635   6.352  13.599  0.00  0.00    +0.000 C 
BRANCH  14  19
ATOM     15  C   UNL     1      44.900   4.667  11.574  0.00  0.00    +0.000 A 
ATOM     16  C   UNL     1      45.029   3.378  12.069  0.00  0.00    +0.000 A 
ATOM     17  N   UNL     1      45.940   3.018  13.009  0.00  0.00    +0.000 NA
ATOM     18  C   UNL     1      46.748   3.993  13.478  0.00  0.00    +0.000 A 
ATOM     19  C   UNL     1      46.691   5.318  13.059  0.00  0.00    +0.000 A 
ATOM     20  C   UNL     1      45.734   5.657  12.094  0.00  0.00    +0.000 A 
BRANCH  15  22
ATOM     21  N   UNL     1      44.205   4.583   9.247  0.00  0.00    +0.000 N 
ATOM     22  C   UNL     1      43.893   4.939  10.530  0.00  0.00    +0.000 C 
ATOM     23  O   UNL     1      42.804   5.428  10.805  0.00  0.00    +0.000 OA
ATOM     24  H   UNL     1      43.461   4.674   8.567  0.00  0.00    +0.000 HD
ATOM     25  H   UNL     1      44.961   3.950   9.029  0.00  0.00    +0.000 HD
ENDBRANCH  15  22
ENDBRANCH  14  19
ENDBRANCH   1  14
TORSDOF 5
ENDMDL
MODEL 9
REMARK VINA RESULT:    -6.105      3.187      4.869
REMARK INTER + INTRA:          -8.614
REMARK INTER:                  -7.910
REMARK INTRA:                  -0.704
REMARK UNBOUND:                -0.724
REMARK  Name = 
REMARK  5 active torsions:
REMARK  status: ('A' for Active; 'I' for Inactive)
REMARK    1  A    between atoms: C_2  and  C_4
REMARK    2  A    between atoms: C_8  and  C_9
REMARK    3  A    between atoms: C_9  and  C_10
REMARK    4  A    between atoms: C_10  and  C_11
REMARK    5  A    between atoms: C_15  and  N_16
REMARK                            x       y       z     vdW  Elec       q    Type
REMARK                         _______ _______ _______ _____ _____    ______ ____
ROOT
ATOM      1  C   UNL     1      46.734   6.902  11.737  0.00  0.00    +0.000 C 
ENDROOT
BRANCH   1   2
ATOM      2  C   UNL     1      48.071   7.260  12.359  0.00  0.00    +0.000 A 
ATOM      3  C   UNL     1      48.990   8.101  11.719  0.00  0.00    +0.000 A 
ATOM      4  C   UNL     1      50.171   8.464  12.350  0.00  0.00    +0.000 A 
ATOM      5  C   UNL     1      50.436   8.015  13.642  0.00  0.00    +0.000 A 
ATOM      6  C   UNL     1      49.540   7.190  14.339  0.00  0.00    +0.000 A 
ATOM      7  C   UNL     1      48.369   6.811  13.662  0.00  0.00    +0.000 A 
BRANCH   6   8
ATOM      8  N   UNL     1      49.824   6.791  15.629  0.00  0.00    +0.000 N 
ATOM      9  C   UNL     1      48.843   6.171  16.530  0.00  0.00    +0.000 C 
ATOM     10  C   UNL     1      48.623   7.053  17.766  0.00  0.00    +0.000 C 
ATOM     11  O   UNL     1      49.864   7.342  18.434  0.00  0.00    +0.000 OA
ATOM     12  C   UNL     1      50.755   8.035  17.546  0.00  0.00    +0.000 C 
ATOM     13  C   UNL     1      51.074   7.205  16.290  0.00  0.00    +0.000 C 
ENDBRANCH   6   8
ENDBRANCH   1   2
BRANCH   1  14
ATOM     14  C   UNL     1      45.677   6.415  12.737  0.00  0.00    +0.000 C 
BRANCH  14  19
ATOM     15  C   UNL     1      44.430   3.539  10.593  0.00  0.00    +0.000 A 
ATOM     16  C   UNL     1      43.639   2.897  11.534  0.00  0.00    +0.000 A 
ATOM     17  N   UNL     1      43.484   3.329  12.812  0.00  0.00    +0.000 NA
ATOM     18  C   UNL     1      44.143   4.457  13.157  0.00  0.00    +0.000 A 
ATOM     19  C   UNL     1      44.949   5.183  12.286  0.00  0.00    +0.000 A 
ATOM     20  C   UNL     1      45.079   4.714  10.973  0.00  0.00    +0.000 A 
BRANCH  15  22
ATOM     21  N   UNL     1      44.802   1.623   9.146  0.00  0.00    +0.000 N 
ATOM     22  C   UNL     1      44.549   2.964   9.239  0.00  0.00    +0.000 C 
ATOM     23  O   UNL     1      44.388   3.650   8.238  0.00  0.00    +0.000 OA
ATOM     24  H   UNL     1      44.768   1.228   8.215  0.00  0.00    +0.000 HD
ATOM     25  H   UNL     1      44.676   0.992   9.925  0.00  0.00    +0.000 HD
ENDBRANCH  15  22
ENDBRANCH  14  19
ENDBRANCH   1  14
TORSDOF 5
ENDMDL
