MODEL 1
REMARK VINA RESULT:    -7.840      0.000      0.000
REMARK INTER + INTRA:         -11.862
REMARK INTER:                 -10.590
REMARK INTRA:                  -1.272
REMARK UNBOUND:                -1.272
REMARK  Name = 
REMARK  7 active torsions:
REMARK  status: ('A' for Active; 'I' for Inactive)
REMARK    1  A    between atoms: C_1  and  C_2
REMARK    2  A    between atoms: C_2  and  N_3
REMARK    3  A    between atoms: C_2  and  C_16
REMARK    4  A    between atoms: C_4  and  C_6
REMARK    5  A    between atoms: C_19  and  C_20
REMARK    6  A    between atoms: C_20  and  N_21
REMARK    7  A    between atoms: C_22  and  C_24
REMARK                            x       y       z     vdW  Elec       q    Type
REMARK                         _______ _______ _______ _____ _____    ______ ____
ROOT
ATOM      1  C   UNL     1      46.911   9.478  13.781  0.00  0.00    +0.000 C 
ATOM      2  C   UNL     1      47.551   8.112  13.500  0.00  0.00    +0.000 C 
ENDROOT
BRANCH   2   3
ATOM      3  C   UNL     1      46.628   7.264  12.632  0.00  0.00    +0.000 A 
ATOM      4  C   UNL     1      45.344   6.916  13.073  0.00  0.00    +0.000 A 
ATOM      5  C   UNL     1      44.483   6.179  12.249  0.00  0.00    +0.000 A 
ATOM      6  C   UNL     1      44.887   5.767  10.972  0.00  0.00    +0.000 A 
ATOM      7  C   UNL     1      46.171   6.112  10.531  0.00  0.00    +0.000 A 
ATOM      8  C   UNL     1      47.031   6.844  11.352  0.00  0.00    +0.000 A 
BRANCH   6   9
ATOM      9  C   UNL     1      43.952   5.004  10.071  0.00  0.00    +0.000 C 
BRANCH   9  10
ATOM     10  N   UNL     1      44.662   4.332   9.010  0.00  0.00    +0.000 N 
ATOM     11  C   UNL     1      45.203   3.075   9.185  0.00  0.00    +0.000 C 
ATOM     12  O   UNL     1      45.096   2.430  10.222  0.00  0.00    +0.000 OA
ATOM     13  H   UNL     1      44.762   4.784   8.106  0.00  0.00    +0.000 HD
BRANCH  11  14
ATOM     14  C   UNL     1      45.950   2.525   8.015  0.00  0.00    +0.000 A 
ATOM     15  C   UNL     1      46.153   3.284   6.873  0.00  0.00    +0.000 A 
ATOM     16  C   UNL     1      46.829   2.704   5.807  0.00  0.00    +0.000 A 
ATOM     17  C   UNL     1      47.258   1.398   5.944  0.00  0.00    +0.000 A 
ATOM     18  N   UNL     1      47.053   0.676   7.068  0.00  0.00    +0.000 NA
ATOM     19  N   UNL     1      46.393   1.246   8.120  0.00  0.00    +0.000 NA
ENDBRANCH  11  14
ENDBRANCH   9  10
ENDBRANCH   6   9
ENDBRANCH   2   3
BRANCH   2  20
ATOM     20  N   UNL     1      47.864   7.370  14.715  0.00  0.00    +0.000 N 
ATOM     21  C   UNL     1      49.115   6.899  15.025  0.00  0.00    +0.000 C 
ATOM     22  O   UNL     1      50.097   7.111  14.321  0.00  0.00    +0.000 OA
ATOM     23  H   UNL     1      47.071   6.910  15.154  0.00  0.00    +0.000 HD
BRANCH  21  24
ATOM     24  C   UNL     1      49.236   6.170  16.293  0.00  0.00    +0.000 A 
ATOM     25  C   UNL     1      50.185   6.568  17.224  0.00  0.00    +0.000 A 
ATOM     26  S   UNL     1      50.185   5.626  18.645  0.00  0.00    +0.000 S 
ATOM     27  C   UNL     1      48.944   4.627  18.049  0.00  0.00    +0.000 A 
ATOM     28  N   UNL     1      48.488   3.569  18.774  0.00  0.00    +0.000 NA
ATOM     29  C   UNL     1      47.566   2.880  18.187  0.00  0.00    +0.000 A 
ATOM     30  N   UNL     1      47.050   3.160  16.948  0.00  0.00    +0.000 N 
ATOM     31  C   UNL     1      47.452   4.240  16.198  0.00  0.00    +0.000 A 
ATOM     32  O   UNL     1      46.930   4.504  15.121  0.00  0.00    +0.000 OA
ATOM     33  C   UNL     1      48.512   5.029  16.798  0.00  0.00    +0.000 A 
ATOM     34  H   UNL     1      46.313   2.593  16.555  0.00  0.00    +0.000 HD
ENDBRANCH  21  24
ENDBRANCH   2  20
TORSDOF 6
ENDMDL
MODEL 2
REMARK VINA RESULT:    -7.811      1.904      2.300
REMARK INTER + INTRA:         -11.823
REMARK INTER:                 -10.610
REMARK INTRA:                  -1.213
REMARK UNBOUND:                -1.272
REMARK  Name = 
REMARK  7 active torsions:
REMARK  status: ('A' for Active; 'I' for Inactive)
REMARK    1  A    between atoms: C_1  and  C_2
REMARK    2  A    between atoms: C_2  and  N_3
REMARK    3  A    between atoms: C_2  and  C_16
REMARK    4  A    between atoms: C_4  and  C_6
REMARK    5  A    between atoms: C_19  and  C_20
REMARK    6  A    between atoms: C_20  and  N_21
REMARK    7  A    between atoms: C_22  and  C_24
REMARK                            x       y       z     vdW  Elec       q    Type
REMARK                         _______ _______ _______ _____ _____    ______ ____
ROOT
ATOM      1  C   UNL     1      47.939   9.247  14.275  0.00  0.00    +0.000 C 
ATOM      2  C   UNL     1      48.164   7.732  14.195  0.00  0.00    +0.000 C 
ENDROOT
BRANCH   2   3
ATOM      3  C   UNL     1      47.130   7.092  13.275  0.00  0.00    +0.000 A 
ATOM      4  C   UNL     1      46.363   7.874  12.400  0.00  0.00    +0.000 A 
ATOM      5  C   UNL     1      45.452   7.274  11.521  0.00  0.00    +0.000 A 
ATOM      6  C   UNL     1      45.280   5.883  11.503  0.00  0.00    +0.000 A 
ATOM      7  C   UNL     1      46.043   5.101  12.378  0.00  0.00    +0.000 A 
ATOM      8  C   UNL     1      46.951   5.698  13.255  0.00  0.00    +0.000 A 
BRANCH   6   9
ATOM      9  C   UNL     1      44.325   5.232  10.536  0.00  0.00    +0.000 C 
BRANCH   9  10
ATOM     10  N   UNL     1      45.023   4.568   9.462  0.00  0.00    +0.000 N 
ATOM     11  C   UNL     1      45.003   3.194   9.327  0.00  0.00    +0.000 C 
ATOM     12  O   UNL     1      44.378   2.450  10.075  0.00  0.00    +0.000 OA
ATOM     13  H   UNL     1      45.534   5.116   8.778  0.00  0.00    +0.000 HD
BRANCH  11  14
ATOM     14  C   UNL     1      45.808   2.644   8.197  0.00  0.00    +0.000 A 
ATOM     15  C   UNL     1      46.093   3.414   7.079  0.00  0.00    +0.000 A 
ATOM     16  C   UNL     1      46.820   2.833   6.048  0.00  0.00    +0.000 A 
ATOM     17  C   UNL     1      47.216   1.518   6.193  0.00  0.00    +0.000 A 
ATOM     18  N   UNL     1      46.931   0.786   7.292  0.00  0.00    +0.000 NA
ATOM     19  N   UNL     1      46.220   1.356   8.311  0.00  0.00    +0.000 NA
ENDBRANCH  11  14
ENDBRANCH   9  10
ENDBRANCH   6   9
ENDBRANCH   2   3
BRANCH   2  20
ATOM     20  N   UNL     1      48.099   7.078  15.497  0.00  0.00    +0.000 N 
ATOM     21  C   UNL     1      49.173   6.484  16.110  0.00  0.00    +0.000 C 
ATOM     22  O   UNL     1      50.303   6.500  15.632  0.00  0.00    +0.000 OA
ATOM     23  H   UNL     1      47.173   6.767  15.777  0.00  0.00    +0.000 HD
BRANCH  21  24
ATOM     24  C   UNL     1      48.915   5.873  17.420  0.00  0.00    +0.000 A 
ATOM     25  C   UNL     1      49.145   4.517  17.601  0.00  0.00    +0.000 A 
ATOM     26  S   UNL     1      48.809   3.972  19.181  0.00  0.00    +0.000 S 
ATOM     27  C   UNL     1      48.304   5.522  19.668  0.00  0.00    +0.000 A 
ATOM     28  N   UNL     1      47.840   5.742  20.927  0.00  0.00    +0.000 NA
ATOM     29  C   UNL     1      47.463   6.958  21.150  0.00  0.00    +0.000 A 
ATOM     30  N   UNL     1      47.520   7.975  20.231  0.00  0.00    +0.000 N 
ATOM     31  C   UNL     1      48.018   7.806  18.961  0.00  0.00    +0.000 A 
ATOM     32  O   UNL     1      48.116   8.746  18.180  0.00  0.00    +0.000 OA
ATOM     33  C   UNL     1      48.424   6.449  18.648  0.00  0.00    +0.000 A 
ATOM     34  H   UNL     1      47.230   8.910  20.477  0.00  0.00    +0.000 HD
ENDBRANCH  21  24
ENDBRANCH   2  20
TORSDOF 6
ENDMDL
MODEL 3
REMARK VINA RESULT:    -7.566      1.488      1.725
REMARK INTER + INTRA:         -11.492
REMARK INTER:                 -10.518
REMARK INTRA:                  -0.974
REMARK UNBOUND:                -1.272
REMARK  Name = 
REMARK  7 active torsions:
REMARK  status: ('A' for Active; 'I' for Inactive)
REMARK    1  A    between atoms: C_1  and  C_2
REMARK    2  A    between atoms: C_2  and  N_3
REMARK    3  A    between atoms: C_2  and  C_16
REMARK    4  A    between atoms: C_4  and  C_6
REMARK    5  A    between atoms: C_19  and  C_20
REMARK    6  A    between atoms: C_20  and  N_21
REMARK    7  A    between atoms: C_22  and  C_24
REMARK                            x       y       z     vdW  Elec       q    Type
REMARK                         _______ _______ _______ _____ _____    ______ ____
ROOT
ATOM      1  C   UNL     1      48.083   9.737  13.665  0.00  0.00    +0.000 C 
ATOM      2  C   UNL     1      48.234   8.237  13.949  0.00  0.00    +0.000 C 
ENDROOT
BRANCH   2   3
ATOM      3  C   UNL     1      47.213   7.442  13.142  0.00  0.00    +0.000 A 
ATOM      4  C   UNL     1      46.388   8.073  12.201  0.00  0.00    +0.000 A 
ATOM      5  C   UNL     1      45.488   7.328  11.428  0.00  0.00    +0.000 A 
ATOM      6  C   UNL     1      45.387   5.939  11.583  0.00  0.00    +0.000 A 
ATOM      7  C   UNL     1      46.208   5.307  12.525  0.00  0.00    +0.000 A 
ATOM      8  C   UNL     1      47.104   6.048  13.297  0.00  0.00    +0.000 A 
BRANCH   6   9
ATOM      9  C   UNL     1      44.444   5.130  10.730  0.00  0.00    +0.000 C 
BRANCH   9  10
ATOM     10  N   UNL     1      45.132   4.490   9.635  0.00  0.00    +0.000 N 
ATOM     11  C   UNL     1      45.014   3.135   9.400  0.00  0.00    +0.000 C 
ATOM     12  O   UNL     1      44.305   2.391  10.070  0.00  0.00    +0.000 OA
ATOM     13  H   UNL     1      45.710   5.043   9.011  0.00  0.00    +0.000 HD
BRANCH  11  14
ATOM     14  C   UNL     1      45.819   2.604   8.261  0.00  0.00    +0.000 A 
ATOM     15  C   UNL     1      46.092   3.388   7.151  0.00  0.00    +0.000 A 
ATOM     16  C   UNL     1      46.820   2.825   6.110  0.00  0.00    +0.000 A 
ATOM     17  C   UNL     1      47.228   1.512   6.239  0.00  0.00    +0.000 A 
ATOM     18  N   UNL     1      46.954   0.766   7.332  0.00  0.00    +0.000 NA
ATOM     19  N   UNL     1      46.242   1.318   8.359  0.00  0.00    +0.000 NA
ENDBRANCH  11  14
ENDBRANCH   9  10
ENDBRANCH   6   9
ENDBRANCH   2   3
BRANCH   2  20
ATOM     20  N   UNL     1      48.075   7.907  15.360  0.00  0.00    +0.000 N 
ATOM     21  C   UNL     1      49.083   7.414  16.149  0.00  0.00    +0.000 C 
ATOM     22  O   UNL     1      50.230   7.257  15.741  0.00  0.00    +0.000 OA
ATOM     23  H   UNL     1      47.120   7.721  15.653  0.00  0.00    +0.000 HD
BRANCH  21  24
ATOM     24  C   UNL     1      48.734   7.137  17.548  0.00  0.00    +0.000 A 
ATOM     25  C   UNL     1      48.274   8.167  18.356  0.00  0.00    +0.000 A 
ATOM     26  S   UNL     1      47.901   7.674  19.945  0.00  0.00    +0.000 S 
ATOM     27  C   UNL     1      48.381   6.074  19.621  0.00  0.00    +0.000 A 
ATOM     28  N   UNL     1      48.350   5.123  20.593  0.00  0.00    +0.000 NA
ATOM     29  C   UNL     1      48.770   3.962  20.215  0.00  0.00    +0.000 A 
ATOM     30  N   UNL     1      49.206   3.662  18.950  0.00  0.00    +0.000 N 
ATOM     31  C   UNL     1      49.217   4.580  17.927  0.00  0.00    +0.000 A 
ATOM     32  O   UNL     1      49.552   4.270  16.790  0.00  0.00    +0.000 OA
ATOM     33  C   UNL     1      48.787   5.911  18.308  0.00  0.00    +0.000 A 
ATOM     34  H   UNL     1      49.501   2.726  18.713  0.00  0.00    +0.000 HD
ENDBRANCH  21  24
ENDBRANCH   2  20
TORSDOF 6
ENDMDL
MODEL 4
REMARK VINA RESULT:    -7.506      3.513      4.945
REMARK INTER + INTRA:         -11.411
REMARK INTER:                 -10.272
REMARK INTRA:                  -1.138
REMARK UNBOUND:                -1.272
REMARK  Name = 
REMARK  7 active torsions:
REMARK  status: ('A' for Active; 'I' for Inactive)
REMARK    1  A    between atoms: C_1  and  C_2
REMARK    2  A    between atoms: C_2  and  N_3
REMARK    3  A    between atoms: C_2  and  C_16
REMARK    4  A    between atoms: C_4  and  C_6
REMARK    5  A    between atoms: C_19  and  C_20
REMARK    6  A    between atoms: C_20  and  N_21
REMARK    7  A    between atoms: C_22  and  C_24
REMARK                            x       y       z     vdW  Elec       q    Type
REMARK                         _______ _______ _______ _____ _____    ______ ____
ROOT
ATOM      1  C   UNL     1      47.602   2.884  17.572  0.00  0.00    +0.000 C 
ATOM      2  C   UNL     1      48.467   4.145  17.456  0.00  0.00    +0.000 C 
ENDROOT
BRANCH   2   3
ATOM      3  C   UNL     1      48.083   4.937  16.211  0.00  0.00    +0.000 A 
ATOM      4  C   UNL     1      48.661   6.185  15.945  0.00  0.00    +0.000 A 
ATOM      5  C   UNL     1      48.341   6.885  14.774  0.00  0.00    +0.000 A 
ATOM      6  C   UNL     1      47.431   6.356  13.848  0.00  0.00    +0.000 A 
ATOM      7  C   UNL     1      46.850   5.110  14.114  0.00  0.00    +0.000 A 
ATOM      8  C   UNL     1      47.167   4.414  15.282  0.00  0.00    +0.000 A 
BRANCH   6   9
ATOM      9  C   UNL     1      47.109   7.089  12.572  0.00  0.00    +0.000 C 
BRANCH   9  10
ATOM     10  N   UNL     1      46.812   6.179  11.493  0.00  0.00    +0.000 N 
ATOM     11  C   UNL     1      45.525   6.010  11.022  0.00  0.00    +0.000 C 
ATOM     12  O   UNL     1      44.561   6.633  11.453  0.00  0.00    +0.000 OA
ATOM     13  H   UNL     1      47.562   5.652  11.057  0.00  0.00    +0.000 HD
BRANCH  11  14
ATOM     14  C   UNL     1      45.362   5.000   9.936  0.00  0.00    +0.000 A 
ATOM     15  C   UNL     1      44.608   3.853  10.131  0.00  0.00    +0.000 A 
ATOM     16  C   UNL     1      44.521   2.937   9.091  0.00  0.00    +0.000 A 
ATOM     17  C   UNL     1      45.196   3.219   7.919  0.00  0.00    +0.000 A 
ATOM     18  N   UNL     1      45.922   4.346   7.747  0.00  0.00    +0.000 NA
ATOM     19  N   UNL     1      46.006   5.251   8.767  0.00  0.00    +0.000 NA
ENDBRANCH  11  14
ENDBRANCH   9  10
ENDBRANCH   6   9
ENDBRANCH   2   3
BRANCH   2  20
ATOM     20  N   UNL     1      49.894   3.852  17.402  0.00  0.00    +0.000 N 
ATOM     21  C   UNL     1      50.770   4.118  18.424  0.00  0.00    +0.000 C 
ATOM     22  O   UNL     1      50.412   4.583  19.502  0.00  0.00    +0.000 OA
ATOM     23  H   UNL     1      50.282   3.770  16.466  0.00  0.00    +0.000 HD
BRANCH  21  24
ATOM     24  C   UNL     1      52.173   3.755  18.186  0.00  0.00    +0.000 A 
ATOM     25  C   UNL     1      53.163   4.716  18.327  0.00  0.00    +0.000 A 
ATOM     26  S   UNL     1      54.735   4.127  18.029  0.00  0.00    +0.000 S 
ATOM     27  C   UNL     1      54.143   2.575  17.660  0.00  0.00    +0.000 A 
ATOM     28  N   UNL     1      54.985   1.579  17.274  0.00  0.00    +0.000 NA
ATOM     29  C   UNL     1      54.396   0.463  16.997  0.00  0.00    +0.000 A 
ATOM     30  N   UNL     1      53.045   0.250  17.082  0.00  0.00    +0.000 N 
ATOM     31  C   UNL     1      52.162   1.215  17.505  0.00  0.00    +0.000 A 
ATOM     32  O   UNL     1      50.966   0.979  17.633  0.00  0.00    +0.000 OA
ATOM     33  C   UNL     1      52.768   2.499  17.797  0.00  0.00    +0.000 A 
ATOM     34  H   UNL     1      52.650  -0.655  16.872  0.00  0.00    +0.000 HD
ENDBRANCH  21  24
ENDBRANCH   2  20
TORSDOF 6
ENDMDL
MODEL 5
REMARK VINA RESULT:    -7.252      3.761      8.549
REMARK INTER + INTRA:         -11.068
REMARK INTER:                  -9.947
REMARK INTRA:                  -1.121
REMARK UNBOUND:                -1.272
REMARK  Name = 
REMARK  7 active torsions:
REMARK  status: ('A' for Active; 'I' for Inactive)
REMARK    1  A    between atoms: C_1  and  C_2
REMARK    2  A    between atoms: C_2  and  N_3
REMARK    3  A    between atoms: C_2  and  C_16
REMARK    4  A    between atoms: C_4  and  C_6
REMARK    5  A    between atoms: C_19  and  C_20
REMARK    6  A    between atoms: C_20  and  N_21
REMARK    7  A    between atoms: C_22  and  C_24
REMARK                            x       y       z     vdW  Elec       q    Type
REMARK                         _______ _______ _______ _____ _____    ______ ____
ROOT
ATOM      1  C   UNL     1      49.321   7.438  13.059  0.00  0.00    +0.000 C 
ATOM      2  C   UNL     1      47.995   6.910  13.622  0.00  0.00    +0.000 C 
ENDROOT
BRANCH   2   3
ATOM      3  C   UNL     1      48.239   6.144  14.918  0.00  0.00    +0.000 A 
ATOM      4  C   UNL     1      47.483   5.007  15.235  0.00  0.00    +0.000 A 
ATOM      5  C   UNL     1      47.747   4.279  16.402  0.00  0.00    +0.000 A 
ATOM      6  C   UNL     1      48.764   4.674  17.282  0.00  0.00    +0.000 A 
ATOM      7  C   UNL     1      49.518   5.811  16.967  0.00  0.00    +0.000 A 
ATOM      8  C   UNL     1      49.255   6.539  15.805  0.00  0.00    +0.000 A 
BRANCH   6   9
ATOM      9  C   UNL     1      49.072   3.874  18.521  0.00  0.00    +0.000 C 
BRANCH   9  10
ATOM     10  N   UNL     1      50.434   3.400  18.525  0.00  0.00    +0.000 N 
ATOM     11  C   UNL     1      50.835   2.344  17.731  0.00  0.00    +0.000 C 
ATOM     12  O   UNL     1      50.088   1.760  16.954  0.00  0.00    +0.000 OA
ATOM     13  H   UNL     1      51.125   3.854  19.114  0.00  0.00    +0.000 HD
BRANCH  11  14
ATOM     14  C   UNL     1      52.263   1.933  17.875  0.00  0.00    +0.000 A 
ATOM     15  C   UNL     1      53.291   2.848  17.714  0.00  0.00    +0.000 A 
ATOM     16  C   UNL     1      54.600   2.396  17.830  0.00  0.00    +0.000 A 
ATOM     17  C   UNL     1      54.802   1.056  18.094  0.00  0.00    +0.000 A 
ATOM     18  N   UNL     1      53.785   0.180  18.251  0.00  0.00    +0.000 NA
ATOM     19  N   UNL     1      52.497   0.623  18.144  0.00  0.00    +0.000 NA
ENDBRANCH  11  14
ENDBRANCH   9  10
ENDBRANCH   6   9
ENDBRANCH   2   3
BRANCH   2  20
ATOM     20  N   UNL     1      47.288   6.040  12.690  0.00  0.00    +0.000 N 
ATOM     21  C   UNL     1      46.301   6.471  11.839  0.00  0.00    +0.000 C 
ATOM     22  O   UNL     1      45.964   7.648  11.755  0.00  0.00    +0.000 OA
ATOM     23  H   UNL     1      47.298   5.054  12.930  0.00  0.00    +0.000 HD
BRANCH  21  24
ATOM     24  C   UNL     1      45.701   5.448  10.974  0.00  0.00    +0.000 A 
ATOM     25  C   UNL     1      45.827   5.555   9.597  0.00  0.00    +0.000 A 
ATOM     26  S   UNL     1      45.086   4.280   8.741  0.00  0.00    +0.000 S 
ATOM     27  C   UNL     1      44.534   3.561  10.181  0.00  0.00    +0.000 A 
ATOM     28  N   UNL     1      43.778   2.431  10.153  0.00  0.00    +0.000 NA
ATOM     29  C   UNL     1      43.404   2.012  11.316  0.00  0.00    +0.000 A 
ATOM     30  N   UNL     1      43.727   2.615  12.505  0.00  0.00    +0.000 N 
ATOM     31  C   UNL     1      44.521   3.735  12.583  0.00  0.00    +0.000 A 
ATOM     32  O   UNL     1      44.846   4.217  13.661  0.00  0.00    +0.000 OA
ATOM     33  C   UNL     1      44.940   4.266  11.300  0.00  0.00    +0.000 A 
ATOM     34  H   UNL     1      43.420   2.223  13.384  0.00  0.00    +0.000 HD
ENDBRANCH  21  24
ENDBRANCH   2  20
TORSDOF 6
ENDMDL
MODEL 6
REMARK VINA RESULT:    -7.243      2.525      3.124
REMARK INTER + INTRA:         -11.056
REMARK INTER:                 -10.005
REMARK INTRA:                  -1.051
REMARK UNBOUND:                -1.272
REMARK  Name = 
REMARK  7 active torsions:
REMARK  status: ('A' for Active; 'I' for Inactive)
REMARK    1  A    between atoms: C_1  and  C_2
REMARK    2  A    between atoms: C_2  and  N_3
REMARK    3  A    between atoms: C_2  and  C_16
REMARK    4  A    between atoms: C_4  and  C_6
REMARK    5  A    between atoms: C_19  and  C_20
REMARK    6  A    between atoms: C_20  and  N_21
REMARK    7  A    between atoms: C_22  and  C_24
REMARK                            x       y       z     vdW  Elec       q    Type
REMARK                         _______ _______ _______ _____ _____    ______ ____
ROOT
ATOM      1  C   UNL     1      49.145   8.804  14.137  0.00  0.00    +0.000 C 
ATOM      2  C   UNL     1      48.873   7.365  14.592  0.00  0.00    +0.000 C 
ENDROOT
BRANCH   2   3
ATOM      3  C   UNL     1      47.783   6.735  13.732  0.00  0.00    +0.000 A 
ATOM      4  C   UNL     1      47.199   7.446  12.675  0.00  0.00    +0.000 A 
ATOM      5  C   UNL     1      46.234   6.843  11.858  0.00  0.00    +0.000 A 
ATOM      6  C   UNL     1      45.826   5.521  12.083  0.00  0.00    +0.000 A 
ATOM      7  C   UNL     1      46.406   4.811  13.141  0.00  0.00    +0.000 A 
ATOM      8  C   UNL     1      47.366   5.411  13.957  0.00  0.00    +0.000 A 
BRANCH   6   9
ATOM      9  C   UNL     1      44.813   4.859  11.186  0.00  0.00    +0.000 C 
BRANCH   9  10
ATOM     10  N   UNL     1      45.432   4.276  10.021  0.00  0.00    +0.000 N 
ATOM     11  C   UNL     1      44.995   3.078   9.492  0.00  0.00    +0.000 C 
ATOM     12  O   UNL     1      44.046   2.446   9.942  0.00  0.00    +0.000 OA
ATOM     13  H   UNL     1      46.202   4.756   9.566  0.00  0.00    +0.000 HD
BRANCH  11  14
ATOM     14  C   UNL     1      45.761   2.573   8.315  0.00  0.00    +0.000 A 
ATOM     15  C   UNL     1      45.946   3.362   7.189  0.00  0.00    +0.000 A 
ATOM     16  C   UNL     1      46.641   2.823   6.114  0.00  0.00    +0.000 A 
ATOM     17  C   UNL     1      47.106   1.527   6.226  0.00  0.00    +0.000 A 
ATOM     18  N   UNL     1      46.919   0.777   7.334  0.00  0.00    +0.000 NA
ATOM     19  N   UNL     1      46.240   1.306   8.395  0.00  0.00    +0.000 NA
ENDBRANCH  11  14
ENDBRANCH   9  10
ENDBRANCH   6   9
ENDBRANCH   2   3
BRANCH   2  20
ATOM     20  N   UNL     1      48.474   7.277  15.992  0.00  0.00    +0.000 N 
ATOM     21  C   UNL     1      49.105   6.487  16.920  0.00  0.00    +0.000 C 
ATOM     22  O   UNL     1      50.101   5.820  16.658  0.00  0.00    +0.000 OA
ATOM     23  H   UNL     1      47.512   7.542  16.182  0.00  0.00    +0.000 HD
BRANCH  21  24
ATOM     24  C   UNL     1      48.559   6.527  18.282  0.00  0.00    +0.000 A 
ATOM     25  C   UNL     1      48.371   5.344  18.980  0.00  0.00    +0.000 A 
ATOM     26  S   UNL     1      47.744   5.568  20.550  0.00  0.00    +0.000 S 
ATOM     27  C   UNL     1      47.662   7.254  20.336  0.00  0.00    +0.000 A 
ATOM     28  N   UNL     1      47.163   8.059  21.312  0.00  0.00    +0.000 NA
ATOM     29  C   UNL     1      47.133   9.313  21.003  0.00  0.00    +0.000 A 
ATOM     30  N   UNL     1      47.566   9.836  19.812  0.00  0.00    +0.000 N 
ATOM     31  C   UNL     1      48.114   9.064  18.814  0.00  0.00    +0.000 A 
ATOM     32  O   UNL     1      48.551   9.564  17.784  0.00  0.00    +0.000 OA
ATOM     33  C   UNL     1      48.140   7.642  19.097  0.00  0.00    +0.000 A 
ATOM     34  H   UNL     1      47.536  10.830  19.642  0.00  0.00    +0.000 HD
ENDBRANCH  21  24
ENDBRANCH   2  20
TORSDOF 6
ENDMDL
MODEL 7
REMARK VINA RESULT:    -7.217      4.283      6.753
REMARK INTER + INTRA:         -11.021
REMARK INTER:                 -10.048
REMARK INTRA:                  -0.973
REMARK UNBOUND:                -1.272
REMARK  Name = 
REMARK  7 active torsions:
REMARK  status: ('A' for Active; 'I' for Inactive)
REMARK    1  A    between atoms: C_1  and  C_2
REMARK    2  A    between atoms: C_2  and  N_3
REMARK    3  A    between atoms: C_2  and  C_16
REMARK    4  A    between atoms: C_4  and  C_6
REMARK    5  A    between atoms: C_19  and  C_20
REMARK    6  A    between atoms: C_20  and  N_21
REMARK    7  A    between atoms: C_22  and  C_24
REMARK                            x       y       z     vdW  Elec       q    Type
REMARK                         _______ _______ _______ _____ _____    ______ ____
ROOT
ATOM      1  C   UNL     1      46.507   3.500  13.049  0.00  0.00    +0.000 C 
ATOM      2  C   UNL     1      46.233   4.586  14.098  0.00  0.00    +0.000 C 
ENDROOT
BRANCH   2   3
ATOM      3  C   UNL     1      45.947   5.919  13.416  0.00  0.00    +0.000 A 
ATOM      4  C   UNL     1      44.796   6.097  12.637  0.00  0.00    +0.000 A 
ATOM      5  C   UNL     1      44.514   7.340  12.055  0.00  0.00    +0.000 A 
ATOM      6  C   UNL     1      45.378   8.429  12.232  0.00  0.00    +0.000 A 
ATOM      7  C   UNL     1      46.530   8.252  13.008  0.00  0.00    +0.000 A 
ATOM      8  C   UNL     1      46.813   7.014  13.587  0.00  0.00    +0.000 A 
BRANCH   6   9
ATOM      9  C   UNL     1      45.061   9.776  11.636  0.00  0.00    +0.000 C 
BRANCH   9  10
ATOM     10  N   UNL     1      43.768  10.256  12.060  0.00  0.00    +0.000 N 
ATOM     11  C   UNL     1      42.733  10.435  11.164  0.00  0.00    +0.000 C 
ATOM     12  O   UNL     1      42.821  10.175   9.969  0.00  0.00    +0.000 OA
ATOM     13  H   UNL     1      43.603  10.460  13.041  0.00  0.00    +0.000 HD
BRANCH  11  14
ATOM     14  C   UNL     1      41.469  10.982  11.739  0.00  0.00    +0.000 A 
ATOM     15  C   UNL     1      40.244  10.395  11.461  0.00  0.00    +0.000 A 
ATOM     16  C   UNL     1      39.100  10.971  12.001  0.00  0.00    +0.000 A 
ATOM     17  C   UNL     1      39.249  12.100  12.781  0.00  0.00    +0.000 A 
ATOM     18  N   UNL     1      40.453  12.655  13.043  0.00  0.00    +0.000 NA
ATOM     19  N   UNL     1      41.580  12.088  12.517  0.00  0.00    +0.000 NA
ENDBRANCH  11  14
ENDBRANCH   9  10
ENDBRANCH   6   9
ENDBRANCH   2   3
BRANCH   2  20
ATOM     20  N   UNL     1      47.339   4.766  15.031  0.00  0.00    +0.000 N 
ATOM     21  C   UNL     1      47.385   4.201  16.281  0.00  0.00    +0.000 C 
ATOM     22  O   UNL     1      46.514   3.448  16.702  0.00  0.00    +0.000 OA
ATOM     23  H   UNL     1      47.905   5.594  14.873  0.00  0.00    +0.000 HD
BRANCH  21  24
ATOM     24  C   UNL     1      48.580   4.498  17.081  0.00  0.00    +0.000 A 
ATOM     25  C   UNL     1      48.683   5.717  17.733  0.00  0.00    +0.000 A 
ATOM     26  S   UNL     1      50.124   5.895  18.628  0.00  0.00    +0.000 S 
ATOM     27  C   UNL     1      50.680   4.362  18.141  0.00  0.00    +0.000 A 
ATOM     28  N   UNL     1      51.900   3.904  18.532  0.00  0.00    +0.000 NA
ATOM     29  C   UNL     1      52.205   2.739  18.064  0.00  0.00    +0.000 A 
ATOM     30  N   UNL     1      51.397   1.986  17.252  0.00  0.00    +0.000 N 
ATOM     31  C   UNL     1      50.141   2.392  16.865  0.00  0.00    +0.000 A 
ATOM     32  O   UNL     1      49.414   1.673  16.190  0.00  0.00    +0.000 OA
ATOM     33  C   UNL     1      49.763   3.710  17.336  0.00  0.00    +0.000 A 
ATOM     34  H   UNL     1      51.687   1.071  16.938  0.00  0.00    +0.000 HD
ENDBRANCH  21  24
ENDBRANCH   2  20
TORSDOF 6
ENDMDL
MODEL 8
REMARK VINA RESULT:    -7.000      3.346      4.810
REMARK INTER + INTRA:         -10.727
REMARK INTER:                  -9.398
REMARK INTRA:                  -1.330
REMARK UNBOUND:                -1.272
REMARK  Name = 
REMARK  7 active torsions:
REMARK  status: ('A' for Active; 'I' for Inactive)
REMARK    1  A    between atoms: C_1  and  C_2
REMARK    2  A    between atoms: C_2  and  N_3
REMARK    3  A    between atoms: C_2  and  C_16
REMARK    4  A    between atoms: C_4  and  C_6
REMARK    5  A    between atoms: C_19  and  C_20
REMARK    6  A    between atoms: C_20  and  N_21
REMARK    7  A    between atoms: C_22  and  C_24
REMARK                            x       y       z     vdW  Elec       q    Type
REMARK                         _______ _______ _______ _____ _____    ______ ____
ROOT
ATOM      1  C   UNL     1      48.617   5.974  15.997  0.00  0.00    +0.000 C 
ATOM      2  C   UNL     1      48.582   7.012  14.868  0.00  0.00    +0.000 C 
ENDROOT
BRANCH   2   3
ATOM      3  C   UNL     1      47.625   6.565  13.768  0.00  0.00    +0.000 A 
ATOM      4  C   UNL     1      47.119   5.259  13.741  0.00  0.00    +0.000 A 
ATOM      5  C   UNL     1      46.201   4.870  12.757  0.00  0.00    +0.000 A 
ATOM      6  C   UNL     1      45.775   5.775  11.775  0.00  0.00    +0.000 A 
ATOM      7  C   UNL     1      46.282   7.079  11.799  0.00  0.00    +0.000 A 
ATOM      8  C   UNL     1      47.199   7.467  12.778  0.00  0.00    +0.000 A 
BRANCH   6   9
ATOM      9  C   UNL     1      44.762   5.370  10.735  0.00  0.00    +0.000 C 
BRANCH   9  10
ATOM     10  N   UNL     1      45.370   4.626   9.659  0.00  0.00    +0.000 N 
ATOM     11  C   UNL     1      45.069   3.298   9.437  0.00  0.00    +0.000 C 
ATOM     12  O   UNL     1      44.254   2.669  10.102  0.00  0.00    +0.000 OA
ATOM     13  H   UNL     1      46.029   5.086   9.038  0.00  0.00    +0.000 HD
BRANCH  11  14
ATOM     14  C   UNL     1      45.810   2.646   8.317  0.00  0.00    +0.000 A 
ATOM     15  C   UNL     1      46.128   3.347   7.164  0.00  0.00    +0.000 A 
ATOM     16  C   UNL     1      46.791   2.674   6.145  0.00  0.00    +0.000 A 
ATOM     17  C   UNL     1      47.091   1.340   6.337  0.00  0.00    +0.000 A 
ATOM     18  N   UNL     1      46.775   0.675   7.471  0.00  0.00    +0.000 NA
ATOM     19  N   UNL     1      46.128   1.336   8.477  0.00  0.00    +0.000 NA
ENDBRANCH  11  14
ENDBRANCH   9  10
ENDBRANCH   6   9
ENDBRANCH   2   3
BRANCH   2  20
ATOM     20  N   UNL     1      49.893   7.254  14.277  0.00  0.00    +0.000 N 
ATOM     21  C   UNL     1      50.485   8.490  14.208  0.00  0.00    +0.000 C 
ATOM     22  O   UNL     1      49.977   9.498  14.689  0.00  0.00    +0.000 OA
ATOM     23  H   UNL     1      50.201   6.552  13.611  0.00  0.00    +0.000 HD
BRANCH  21  24
ATOM     24  C   UNL     1      51.809   8.539  13.574  0.00  0.00    +0.000 A 
ATOM     25  C   UNL     1      52.915   8.907  14.325  0.00  0.00    +0.000 A 
ATOM     26  S   UNL     1      54.374   8.899  13.443  0.00  0.00    +0.000 S 
ATOM     27  C   UNL     1      53.571   8.444  12.014  0.00  0.00    +0.000 A 
ATOM     28  N   UNL     1      54.252   8.300  10.845  0.00  0.00    +0.000 NA
ATOM     29  C   UNL     1      53.513   7.981   9.835  0.00  0.00    +0.000 A 
ATOM     30  N   UNL     1      52.157   7.780   9.890  0.00  0.00    +0.000 N 
ATOM     31  C   UNL     1      51.436   7.876  11.057  0.00  0.00    +0.000 A 
ATOM     32  O   UNL     1      50.236   7.630  11.091  0.00  0.00    +0.000 OA
ATOM     33  C   UNL     1      52.214   8.266  12.216  0.00  0.00    +0.000 A 
ATOM     34  H   UNL     1      51.640   7.510   9.066  0.00  0.00    +0.000 HD
ENDBRANCH  21  24
ENDBRANCH   2  20
TORSDOF 6
ENDMDL
MODEL 9
REMARK VINA RESULT:    -6.943      3.328      8.706
REMARK INTER + INTRA:         -10.651
REMARK INTER:                  -9.638
REMARK INTRA:                  -1.013
REMARK UNBOUND:                -1.272
REMARK  Name = 
REMARK  7 active torsions:
REMARK  status: ('A' for Active; 'I' for Inactive)
REMARK    1  A    between atoms: C_1  and  C_2
REMARK    2  A    between atoms: C_2  and  N_3
REMARK    3  A    between atoms: C_2  and  C_16
REMARK    4  A    between atoms: C_4  and  C_6
REMARK    5  A    between atoms: C_19  and  C_20
REMARK    6  A    between atoms: C_20  and  N_21
REMARK    7  A    between atoms: C_22  and  C_24
REMARK                            x       y       z     vdW  Elec       q    Type
REMARK                         _______ _______ _______ _____ _____    ______ ____
ROOT
ATOM      1  C   UNL     1      49.104   7.715  11.384  0.00  0.00    +0.000 C 
ATOM      2  C   UNL     1      48.056   7.505  12.483  0.00  0.00    +0.000 C 
ENDROOT
BRANCH   2   3
ATOM      3  C   UNL     1      48.737   7.319  13.835  0.00  0.00    +0.000 A 
ATOM      4  C   UNL     1      48.105   6.615  14.869  0.00  0.00    +0.000 A 
ATOM      5  C   UNL     1      48.758   6.404  16.090  0.00  0.00    +0.000 A 
ATOM      6  C   UNL     1      50.052   6.897  16.308  0.00  0.00    +0.000 A 
ATOM      7  C   UNL     1      50.683   7.603  15.277  0.00  0.00    +0.000 A 
ATOM      8  C   UNL     1      50.033   7.816  14.060  0.00  0.00    +0.000 A 
BRANCH   6   9
ATOM      9  C   UNL     1      50.770   6.643  17.608  0.00  0.00    +0.000 C 
BRANCH   9  10
ATOM     10  N   UNL     1      51.467   5.381  17.595  0.00  0.00    +0.000 N 
ATOM     11  C   UNL     1      50.905   4.238  18.126  0.00  0.00    +0.000 C 
ATOM     12  O   UNL     1      49.780   4.200  18.611  0.00  0.00    +0.000 OA
ATOM     13  H   UNL     1      52.391   5.320  17.177  0.00  0.00    +0.000 HD
BRANCH  11  14
ATOM     14  C   UNL     1      51.763   3.017  18.084  0.00  0.00    +0.000 A 
ATOM     15  C   UNL     1      51.369   1.889  17.380  0.00  0.00    +0.000 A 
ATOM     16  C   UNL     1      52.197   0.774  17.406  0.00  0.00    +0.000 A 
ATOM     17  C   UNL     1      53.366   0.850  18.137  0.00  0.00    +0.000 A 
ATOM     18  N   UNL     1      53.733   1.961  18.814  0.00  0.00    +0.000 NA
ATOM     19  N   UNL     1      52.923   3.061  18.786  0.00  0.00    +0.000 NA
ENDBRANCH  11  14
ENDBRANCH   9  10
ENDBRANCH   6   9
ENDBRANCH   2   3
BRANCH   2  20
ATOM     20  N   UNL     1      47.191   6.358  12.233  0.00  0.00    +0.000 N 
ATOM     21  C   UNL     1      45.901   6.457  11.775  0.00  0.00    +0.000 C 
ATOM     22  O   UNL     1      45.379   7.529  11.486  0.00  0.00    +0.000 OA
ATOM     23  H   UNL     1      47.444   5.512  12.734  0.00  0.00    +0.000 HD
BRANCH  21  24
ATOM     24  C   UNL     1      45.183   5.191  11.585  0.00  0.00    +0.000 A 
ATOM     25  C   UNL     1      44.513   4.615  12.654  0.00  0.00    +0.000 A 
ATOM     26  S   UNL     1      43.720   3.158  12.260  0.00  0.00    +0.000 S 
ATOM     27  C   UNL     1      44.281   3.223  10.655  0.00  0.00    +0.000 A 
ATOM     28  N   UNL     1      43.990   2.230   9.772  0.00  0.00    +0.000 NA
ATOM     29  C   UNL     1      44.505   2.395   8.598  0.00  0.00    +0.000 A 
ATOM     30  N   UNL     1      45.274   3.467   8.225  0.00  0.00    +0.000 N 
ATOM     31  C   UNL     1      45.559   4.512   9.072  0.00  0.00    +0.000 A 
ATOM     32  O   UNL     1      46.196   5.488   8.695  0.00  0.00    +0.000 OA
ATOM     33  C   UNL     1      45.033   4.360  10.415  0.00  0.00    +0.000 A 
ATOM     34  H   UNL     1      45.628   3.547   7.283  0.00  0.00    +0.000 HD
ENDBRANCH  21  24
ENDBRANCH   2  20
TORSDOF 6
ENDMDL
