MODEL 1
REMARK VINA RESULT:    -8.379      0.000      0.000
REMARK INTER + INTRA:         -13.136
REMARK INTER:                 -11.808
REMARK INTRA:                  -1.328
REMARK UNBOUND:                -1.328
REMARK  Name = 
REMARK  8 active torsions:
REMARK  status: ('A' for Active; 'I' for Inactive)
REMARK    1  A    between atoms: C_1  and  N_2
REMARK    2  A    between atoms: C_4  and  C_5
REMARK    3  A    between atoms: N_7  and  C_8
REMARK    4  A    between atoms: C_8  and  C_9
REMARK    5  A    between atoms: C_12  and  C_13
REMARK    6  A    between atoms: C_13  and  O_14
REMARK    7  A    between atoms: O_14  and  C_15
REMARK    8  A    between atoms: C_15  and  C_16
REMARK                            x       y       z     vdW  Elec       q    Type
REMARK                         _______ _______ _______ _____ _____    ______ ____
ROOT
ATOM      1  C   UNL     1      46.889   7.754  12.880  0.00  0.00    +0.000 C 
ENDROOT
BRANCH   1   2
ATOM      2  C   UNL     1      46.074   6.642  12.278  0.00  0.00    +0.000 A 
ATOM      3  C   UNL     1      46.144   6.368  10.906  0.00  0.00    +0.000 A 
ATOM      4  C   UNL     1      45.401   5.320  10.352  0.00  0.00    +0.000 A 
ATOM      5  C   UNL     1      44.567   4.532  11.155  0.00  0.00    +0.000 A 
ATOM      6  C   UNL     1      44.487   4.817  12.524  0.00  0.00    +0.000 A 
ATOM      7  C   UNL     1      45.230   5.863  13.079  0.00  0.00    +0.000 A 
BRANCH   5   8
ATOM      8  C   UNL     1      43.754   3.413  10.553  0.00  0.00    +0.000 C 
BRANCH   8   9
ATOM      9  O   UNL     1      44.195   3.170   9.221  0.00  0.00    +0.000 OA
BRANCH   9  10
ATOM     10  C   UNL     1      45.059   2.035   9.156  0.00  0.00    +0.000 C 
BRANCH  10  11
ATOM     11  C   UNL     1      46.002   2.160   7.993  0.00  0.00    +0.000 A 
ATOM     12  C   UNL     1      46.098   3.324   7.225  0.00  0.00    +0.000 A 
ATOM     13  C   UNL     1      47.013   3.392   6.179  0.00  0.00    +0.000 A 
ATOM     14  C   UNL     1      47.821   2.293   5.942  0.00  0.00    +0.000 A 
ATOM     15  N   UNL     1      47.777   1.158   6.672  0.00  0.00    +0.000 NA
ATOM     16  C   UNL     1      46.875   1.121   7.679  0.00  0.00    +0.000 A 
ENDBRANCH  10  11
ENDBRANCH   9  10
ENDBRANCH   8   9
ENDBRANCH   5   8
ENDBRANCH   1   2
BRANCH   1  19
ATOM     17  C   UNL     1      48.443   6.832  14.525  0.00  0.00    +0.000 C 
ATOM     18  O   UNL     1      49.252   6.551  13.648  0.00  0.00    +0.000 OA
ATOM     19  N   UNL     1      47.255   7.474  14.248  0.00  0.00    +0.000 N 
ATOM     20  H   UNL     1      46.565   7.594  14.974  0.00  0.00    +0.000 HD
BRANCH  17  24
ATOM     21  C   UNL     1      49.881   7.312  19.276  0.00  0.00    +0.000 C 
ATOM     22  N   UNL     1      49.331   6.753  18.063  0.00  0.00    +0.000 N 
ATOM     23  C   UNL     1      49.211   7.402  16.864  0.00  0.00    +0.000 A 
ATOM     24  C   UNL     1      48.666   6.520  15.935  0.00  0.00    +0.000 A 
ATOM     25  C   UNL     1      48.435   5.281  16.635  0.00  0.00    +0.000 A 
ATOM     26  C   UNL     1      47.918   4.008  16.399  0.00  0.00    +0.000 A 
ATOM     27 CL   UNL     1      47.245   3.589  14.901  0.00  0.00    +0.000 Cl
ATOM     28  N   UNL     1      47.851   3.068  17.359  0.00  0.00    +0.000 NA
ATOM     29  C   UNL     1      48.315   3.403  18.568  0.00  0.00    +0.000 A 
ATOM     30  N   UNL     1      48.831   4.580  18.949  0.00  0.00    +0.000 NA
ATOM     31  C   UNL     1      48.862   5.475  17.946  0.00  0.00    +0.000 A 
ENDBRANCH  17  24
ENDBRANCH   1  19
TORSDOF 7
ENDMDL
MODEL 2
REMARK VINA RESULT:    -7.908      1.836      2.709
REMARK INTER + INTRA:         -12.472
REMARK INTER:                 -11.421
REMARK INTRA:                  -1.051
REMARK UNBOUND:                -1.328
REMARK  Name = 
REMARK  8 active torsions:
REMARK  status: ('A' for Active; 'I' for Inactive)
REMARK    1  A    between atoms: C_1  and  N_2
REMARK    2  A    between atoms: C_4  and  C_5
REMARK    3  A    between atoms: N_7  and  C_8
REMARK    4  A    between atoms: C_8  and  C_9
REMARK    5  A    between atoms: C_12  and  C_13
REMARK    6  A    between atoms: C_13  and  O_14
REMARK    7  A    between atoms: O_14  and  C_15
REMARK    8  A    between atoms: C_15  and  C_16
REMARK                            x       y       z     vdW  Elec       q    Type
REMARK                         _______ _______ _______ _____ _____    ______ ____
ROOT
ATOM      1  C   UNL     1      48.116   6.579  13.507  0.00  0.00    +0.000 C 
ENDROOT
BRANCH   1   2
ATOM      2  C   UNL     1      46.982   5.885  12.802  0.00  0.00    +0.000 A 
ATOM      3  C   UNL     1      46.343   4.785  13.388  0.00  0.00    +0.000 A 
ATOM      4  C   UNL     1      45.275   4.155  12.741  0.00  0.00    +0.000 A 
ATOM      5  C   UNL     1      44.831   4.605  11.491  0.00  0.00    +0.000 A 
ATOM      6  C   UNL     1      45.481   5.696  10.899  0.00  0.00    +0.000 A 
ATOM      7  C   UNL     1      46.547   6.327  11.547  0.00  0.00    +0.000 A 
BRANCH   5   8
ATOM      8  C   UNL     1      43.690   3.915  10.786  0.00  0.00    +0.000 C 
BRANCH   8   9
ATOM      9  O   UNL     1      44.066   3.629   9.443  0.00  0.00    +0.000 OA
BRANCH   9  10
ATOM     10  C   UNL     1      44.622   2.320   9.323  0.00  0.00    +0.000 C 
BRANCH  10  11
ATOM     11  C   UNL     1      45.667   2.290   8.244  0.00  0.00    +0.000 A 
ATOM     12  C   UNL     1      45.974   3.409   7.464  0.00  0.00    +0.000 A 
ATOM     13  C   UNL     1      46.974   3.330   6.500  0.00  0.00    +0.000 A 
ATOM     14  C   UNL     1      47.653   2.132   6.356  0.00  0.00    +0.000 A 
ATOM     15  N   UNL     1      47.405   1.035   7.102  0.00  0.00    +0.000 NA
ATOM     16  C   UNL     1      46.424   1.141   8.027  0.00  0.00    +0.000 A 
ENDBRANCH  10  11
ENDBRANCH   9  10
ENDBRANCH   8   9
ENDBRANCH   5   8
ENDBRANCH   1   2
BRANCH   1  19
ATOM     17  C   UNL     1      49.121   6.596  15.733  0.00  0.00    +0.000 C 
ATOM     18  O   UNL     1      50.225   6.852  15.266  0.00  0.00    +0.000 OA
ATOM     19  N   UNL     1      47.998   6.485  14.942  0.00  0.00    +0.000 N 
ATOM     20  H   UNL     1      47.127   6.168  15.342  0.00  0.00    +0.000 HD
BRANCH  17  24
ATOM     21  C   UNL     1      48.745   4.326  20.158  0.00  0.00    +0.000 C 
ATOM     22  N   UNL     1      48.722   5.350  19.139  0.00  0.00    +0.000 N 
ATOM     23  C   UNL     1      49.090   5.187  17.831  0.00  0.00    +0.000 A 
ATOM     24  C   UNL     1      48.896   6.393  17.163  0.00  0.00    +0.000 A 
ATOM     25  C   UNL     1      48.401   7.329  18.142  0.00  0.00    +0.000 A 
ATOM     26  C   UNL     1      48.019   8.666  18.236  0.00  0.00    +0.000 A 
ATOM     27 CL   UNL     1      48.149   9.719  16.915  0.00  0.00    +0.000 Cl
ATOM     28  N   UNL     1      47.599   9.216  19.390  0.00  0.00    +0.000 NA
ATOM     29  C   UNL     1      47.554   8.416  20.461  0.00  0.00    +0.000 A 
ATOM     30  N   UNL     1      47.894   7.121  20.531  0.00  0.00    +0.000 NA
ATOM     31  C   UNL     1      48.310   6.636  19.347  0.00  0.00    +0.000 A 
ENDBRANCH  17  24
ENDBRANCH   1  19
TORSDOF 7
ENDMDL
MODEL 3
REMARK VINA RESULT:    -7.773      1.491      1.914
REMARK INTER + INTRA:         -12.282
REMARK INTER:                 -11.219
REMARK INTRA:                  -1.063
REMARK UNBOUND:                -1.328
REMARK  Name = 
REMARK  8 active torsions:
REMARK  status: ('A' for Active; 'I' for Inactive)
REMARK    1  A    between atoms: C_1  and  N_2
REMARK    2  A    between atoms: C_4  and  C_5
REMARK    3  A    between atoms: N_7  and  C_8
REMARK    4  A    between atoms: C_8  and  C_9
REMARK    5  A    between atoms: C_12  and  C_13
REMARK    6  A    between atoms: C_13  and  O_14
REMARK    7  A    between atoms: O_14  and  C_15
REMARK    8  A    between atoms: C_15  and  C_16
REMARK                            x       y       z     vdW  Elec       q    Type
REMARK                         _______ _______ _______ _____ _____    ______ ____
ROOT
ATOM      1  C   UNL     1      48.303   6.924  13.553  0.00  0.00    +0.000 C 
ENDROOT
BRANCH   1   2
ATOM      2  C   UNL     1      47.204   6.107  12.930  0.00  0.00    +0.000 A 
ATOM      3  C   UNL     1      46.661   5.006  13.605  0.00  0.00    +0.000 A 
ATOM      4  C   UNL     1      45.625   4.261  13.032  0.00  0.00    +0.000 A 
ATOM      5  C   UNL     1      45.118   4.594  11.770  0.00  0.00    +0.000 A 
ATOM      6  C   UNL     1      45.672   5.686  11.090  0.00  0.00    +0.000 A 
ATOM      7  C   UNL     1      46.706   6.432  11.662  0.00  0.00    +0.000 A 
BRANCH   5   8
ATOM      8  C   UNL     1      44.012   3.780  11.147  0.00  0.00    +0.000 C 
BRANCH   8   9
ATOM      9  O   UNL     1      44.258   3.635   9.752  0.00  0.00    +0.000 OA
BRANCH   9  10
ATOM     10  C   UNL     1      44.635   2.298   9.424  0.00  0.00    +0.000 C 
BRANCH  10  11
ATOM     11  C   UNL     1      45.671   2.296   8.336  0.00  0.00    +0.000 A 
ATOM     12  C   UNL     1      46.019   3.450   7.629  0.00  0.00    +0.000 A 
ATOM     13  C   UNL     1      47.009   3.394   6.653  0.00  0.00    +0.000 A 
ATOM     14  C   UNL     1      47.636   2.181   6.424  0.00  0.00    +0.000 A 
ATOM     15  N   UNL     1      47.348   1.048   7.100  0.00  0.00    +0.000 NA
ATOM     16  C   UNL     1      46.378   1.134   8.038  0.00  0.00    +0.000 A 
ENDBRANCH  10  11
ENDBRANCH   9  10
ENDBRANCH   8   9
ENDBRANCH   5   8
ENDBRANCH   1   2
BRANCH   1  19
ATOM     17  C   UNL     1      49.024   6.858  15.886  0.00  0.00    +0.000 C 
ATOM     18  O   UNL     1      50.127   6.432  15.565  0.00  0.00    +0.000 OA
ATOM     19  N   UNL     1      48.060   7.176  14.953  0.00  0.00    +0.000 N 
ATOM     20  H   UNL     1      47.128   7.421  15.252  0.00  0.00    +0.000 HD
BRANCH  17  24
ATOM     21  C   UNL     1      47.607   9.174  20.069  0.00  0.00    +0.000 C 
ATOM     22  N   UNL     1      48.008   8.135  19.149  0.00  0.00    +0.000 N 
ATOM     23  C   UNL     1      48.235   8.295  17.809  0.00  0.00    +0.000 A 
ATOM     24  C   UNL     1      48.634   7.071  17.278  0.00  0.00    +0.000 A 
ATOM     25  C   UNL     1      48.624   6.129  18.369  0.00  0.00    +0.000 A 
ATOM     26  C   UNL     1      48.866   4.777  18.608  0.00  0.00    +0.000 A 
ATOM     27 CL   UNL     1      49.254   3.711  17.350  0.00  0.00    +0.000 Cl
ATOM     28  N   UNL     1      48.732   4.225  19.828  0.00  0.00    +0.000 NA
ATOM     29  C   UNL     1      48.359   5.039  20.823  0.00  0.00    +0.000 A 
ATOM     30  N   UNL     1      48.085   6.349  20.750  0.00  0.00    +0.000 NA
ATOM     31  C   UNL     1      48.231   6.834  19.505  0.00  0.00    +0.000 A 
ENDBRANCH  17  24
ENDBRANCH   1  19
TORSDOF 7
ENDMDL
MODEL 4
REMARK VINA RESULT:    -7.378      2.345      3.479
REMARK INTER + INTRA:         -11.726
REMARK INTER:                 -10.704
REMARK INTRA:                  -1.021
REMARK UNBOUND:                -1.328
REMARK  Name = 
REMARK  8 active torsions:
REMARK  status: ('A' for Active; 'I' for Inactive)
REMARK    1  A    between atoms: C_1  and  N_2
REMARK    2  A    between atoms: C_4  and  C_5
REMARK    3  A    between atoms: N_7  and  C_8
REMARK    4  A    between atoms: C_8  and  C_9
REMARK    5  A    between atoms: C_12  and  C_13
REMARK    6  A    between atoms: C_13  and  O_14
REMARK    7  A    between atoms: O_14  and  C_15
REMARK    8  A    between atoms: C_15  and  C_16
REMARK                            x       y       z     vdW  Elec       q    Type
REMARK                         _______ _______ _______ _____ _____    ______ ____
ROOT
ATOM      1  C   UNL     1      47.669   4.064  15.417  0.00  0.00    +0.000 C 
ENDROOT
BRANCH   1   2
ATOM      2  C   UNL     1      46.976   4.477  14.147  0.00  0.00    +0.000 A 
ATOM      3  C   UNL     1      46.022   3.644  13.549  0.00  0.00    +0.000 A 
ATOM      4  C   UNL     1      45.364   4.040  12.380  0.00  0.00    +0.000 A 
ATOM      5  C   UNL     1      45.654   5.272  11.780  0.00  0.00    +0.000 A 
ATOM      6  C   UNL     1      46.618   6.098  12.371  0.00  0.00    +0.000 A 
ATOM      7  C   UNL     1      47.275   5.704  13.540  0.00  0.00    +0.000 A 
BRANCH   5   8
ATOM      8  C   UNL     1      44.955   5.691  10.511  0.00  0.00    +0.000 C 
BRANCH   8   9
ATOM      9  O   UNL     1      45.652   5.159   9.388  0.00  0.00    +0.000 OA
BRANCH   9  10
ATOM     10  C   UNL     1      44.835   4.250   8.650  0.00  0.00    +0.000 C 
BRANCH  10  11
ATOM     11  C   UNL     1      45.675   3.161   8.045  0.00  0.00    +0.000 A 
ATOM     12  C   UNL     1      46.543   3.390   6.973  0.00  0.00    +0.000 A 
ATOM     13  C   UNL     1      47.320   2.350   6.475  0.00  0.00    +0.000 A 
ATOM     14  C   UNL     1      47.218   1.108   7.078  0.00  0.00    +0.000 A 
ATOM     15  N   UNL     1      46.412   0.849   8.130  0.00  0.00    +0.000 NA
ATOM     16  C   UNL     1      45.666   1.879   8.588  0.00  0.00    +0.000 A 
ENDBRANCH  10  11
ENDBRANCH   9  10
ENDBRANCH   8   9
ENDBRANCH   5   8
ENDBRANCH   1   2
BRANCH   1  19
ATOM     17  C   UNL     1      48.574   5.582  17.103  0.00  0.00    +0.000 C 
ATOM     18  O   UNL     1      49.722   5.343  16.746  0.00  0.00    +0.000 OA
ATOM     19  N   UNL     1      47.480   5.028  16.474  0.00  0.00    +0.000 N 
ATOM     20  H   UNL     1      46.556   5.159  16.858  0.00  0.00    +0.000 HD
BRANCH  17  24
ATOM     21  C   UNL     1      47.433   7.144  21.700  0.00  0.00    +0.000 C 
ATOM     22  N   UNL     1      47.739   7.154  20.288  0.00  0.00    +0.000 N 
ATOM     23  C   UNL     1      48.075   6.063  19.533  0.00  0.00    +0.000 A 
ATOM     24  C   UNL     1      48.264   6.475  18.217  0.00  0.00    +0.000 A 
ATOM     25  C   UNL     1      48.042   7.900  18.199  0.00  0.00    +0.000 A 
ATOM     26  C   UNL     1      48.070   8.969  17.305  0.00  0.00    +0.000 A 
ATOM     27 CL   UNL     1      48.539   8.760  15.690  0.00  0.00    +0.000 Cl
ATOM     28  N   UNL     1      47.803  10.232  17.682  0.00  0.00    +0.000 NA
ATOM     29  C   UNL     1      47.497  10.427  18.970  0.00  0.00    +0.000 A 
ATOM     30  N   UNL     1      47.436   9.510  19.945  0.00  0.00    +0.000 NA
ATOM     31  C   UNL     1      47.720   8.272  19.502  0.00  0.00    +0.000 A 
ENDBRANCH  17  24
ENDBRANCH   1  19
TORSDOF 7
ENDMDL
MODEL 5
REMARK VINA RESULT:    -7.103      2.142      3.012
REMARK INTER + INTRA:         -11.337
REMARK INTER:                 -10.465
REMARK INTRA:                  -0.872
REMARK UNBOUND:                -1.328
REMARK  Name = 
REMARK  8 active torsions:
REMARK  status: ('A' for Active; 'I' for Inactive)
REMARK    1  A    between atoms: C_1  and  N_2
REMARK    2  A    between atoms: C_4  and  C_5
REMARK    3  A    between atoms: N_7  and  C_8
REMARK    4  A    between atoms: C_8  and  C_9
REMARK    5  A    between atoms: C_12  and  C_13
REMARK    6  A    between atoms: C_13  and  O_14
REMARK    7  A    between atoms: O_14  and  C_15
REMARK    8  A    between atoms: C_15  and  C_16
REMARK                            x       y       z     vdW  Elec       q    Type
REMARK                         _______ _______ _______ _____ _____    ______ ____
ROOT
ATOM      1  C   UNL     1      47.681   4.251  15.464  0.00  0.00    +0.000 C 
ENDROOT
BRANCH   1   2
ATOM      2  C   UNL     1      46.926   4.553  14.199  0.00  0.00    +0.000 A 
ATOM      3  C   UNL     1      46.263   3.535  13.501  0.00  0.00    +0.000 A 
ATOM      4  C   UNL     1      45.543   3.823  12.337  0.00  0.00    +0.000 A 
ATOM      5  C   UNL     1      45.480   5.132  11.841  0.00  0.00    +0.000 A 
ATOM      6  C   UNL     1      46.156   6.146  12.531  0.00  0.00    +0.000 A 
ATOM      7  C   UNL     1      46.874   5.859  13.695  0.00  0.00    +0.000 A 
BRANCH   5   8
ATOM      8  C   UNL     1      44.718   5.438  10.576  0.00  0.00    +0.000 C 
BRANCH   8   9
ATOM      9  O   UNL     1      45.493   5.045   9.448  0.00  0.00    +0.000 OA
BRANCH   9  10
ATOM     10  C   UNL     1      44.759   4.173   8.588  0.00  0.00    +0.000 C 
BRANCH  10  11
ATOM     11  C   UNL     1      45.656   3.101   8.037  0.00  0.00    +0.000 A 
ATOM     12  C   UNL     1      46.616   3.357   7.054  0.00  0.00    +0.000 A 
ATOM     13  C   UNL     1      47.441   2.330   6.605  0.00  0.00    +0.000 A 
ATOM     14  C   UNL     1      47.290   1.074   7.168  0.00  0.00    +0.000 A 
ATOM     15  N   UNL     1      46.392   0.789   8.135  0.00  0.00    +0.000 NA
ATOM     16  C   UNL     1      45.602   1.806   8.547  0.00  0.00    +0.000 A 
ENDBRANCH  10  11
ENDBRANCH   9  10
ENDBRANCH   8   9
ENDBRANCH   5   8
ENDBRANCH   1   2
BRANCH   1  19
ATOM     17  C   UNL     1      48.782   6.046  16.703  0.00  0.00    +0.000 C 
ATOM     18  O   UNL     1      49.849   5.818  16.146  0.00  0.00    +0.000 OA
ATOM     19  N   UNL     1      47.632   5.349  16.399  0.00  0.00    +0.000 N 
ATOM     20  H   UNL     1      46.797   5.487  16.949  0.00  0.00    +0.000 HD
BRANCH  17  24
ATOM     21  C   UNL     1      48.345  10.537  18.826  0.00  0.00    +0.000 C 
ATOM     22  N   UNL     1      48.447   9.106  18.662  0.00  0.00    +0.000 N 
ATOM     23  C   UNL     1      48.504   8.439  17.469  0.00  0.00    +0.000 A 
ATOM     24  C   UNL     1      48.630   7.076  17.728  0.00  0.00    +0.000 A 
ATOM     25  C   UNL     1      48.629   6.932  19.163  0.00  0.00    +0.000 A 
ATOM     26  C   UNL     1      48.691   5.930  20.129  0.00  0.00    +0.000 A 
ATOM     27 CL   UNL     1      48.729   4.290  19.704  0.00  0.00    +0.000 Cl
ATOM     28  N   UNL     1      48.648   6.196  21.447  0.00  0.00    +0.000 NA
ATOM     29  C   UNL     1      48.549   7.482  21.802  0.00  0.00    +0.000 A 
ATOM     30  N   UNL     1      48.473   8.550  20.996  0.00  0.00    +0.000 NA
ATOM     31  C   UNL     1      48.514   8.214  19.695  0.00  0.00    +0.000 A 
ENDBRANCH  17  24
ENDBRANCH   1  19
TORSDOF 7
ENDMDL
MODEL 6
REMARK VINA RESULT:    -6.984      2.244      2.706
REMARK INTER + INTRA:         -11.170
REMARK INTER:                  -9.639
REMARK INTRA:                  -1.530
REMARK UNBOUND:                -1.328
REMARK  Name = 
REMARK  8 active torsions:
REMARK  status: ('A' for Active; 'I' for Inactive)
REMARK    1  A    between atoms: C_1  and  N_2
REMARK    2  A    between atoms: C_4  and  C_5
REMARK    3  A    between atoms: N_7  and  C_8
REMARK    4  A    between atoms: C_8  and  C_9
REMARK    5  A    between atoms: C_12  and  C_13
REMARK    6  A    between atoms: C_13  and  O_14
REMARK    7  A    between atoms: O_14  and  C_15
REMARK    8  A    between atoms: C_15  and  C_16
REMARK                            x       y       z     vdW  Elec       q    Type
REMARK                         _______ _______ _______ _____ _____    ______ ____
ROOT
ATOM      1  C   UNL     1      48.361   7.521  12.987  0.00  0.00    +0.000 C 
ENDROOT
BRANCH   1   2
ATOM      2  C   UNL     1      47.091   6.718  12.936  0.00  0.00    +0.000 A 
ATOM      3  C   UNL     1      47.041   5.425  13.473  0.00  0.00    +0.000 A 
ATOM      4  C   UNL     1      45.852   4.688  13.444  0.00  0.00    +0.000 A 
ATOM      5  C   UNL     1      44.693   5.224  12.869  0.00  0.00    +0.000 A 
ATOM      6  C   UNL     1      44.748   6.511  12.320  0.00  0.00    +0.000 A 
ATOM      7  C   UNL     1      45.935   7.249  12.350  0.00  0.00    +0.000 A 
BRANCH   5   8
ATOM      8  C   UNL     1      43.416   4.422  12.823  0.00  0.00    +0.000 C 
BRANCH   8   9
ATOM      9  O   UNL     1      43.115   4.087  11.472  0.00  0.00    +0.000 OA
BRANCH   9  10
ATOM     10  C   UNL     1      43.718   2.850  11.094  0.00  0.00    +0.000 C 
BRANCH  10  11
ATOM     11  C   UNL     1      44.564   3.032   9.866  0.00  0.00    +0.000 A 
ATOM     12  C   UNL     1      44.903   4.294   9.368  0.00  0.00    +0.000 A 
ATOM     13  C   UNL     1      45.716   4.401   8.244  0.00  0.00    +0.000 A 
ATOM     14  C   UNL     1      46.181   3.236   7.658  0.00  0.00    +0.000 A 
ATOM     15  N   UNL     1      45.897   1.999   8.118  0.00  0.00    +0.000 NA
ATOM     16  C   UNL     1      45.101   1.928   9.209  0.00  0.00    +0.000 A 
ENDBRANCH  10  11
ENDBRANCH   9  10
ENDBRANCH   8   9
ENDBRANCH   5   8
ENDBRANCH   1   2
BRANCH   1  19
ATOM     17  C   UNL     1      49.736   7.611  15.005  0.00  0.00    +0.000 C 
ATOM     18  O   UNL     1      49.232   8.677  15.338  0.00  0.00    +0.000 OA
ATOM     19  N   UNL     1      49.337   6.933  13.873  0.00  0.00    +0.000 N 
ATOM     20  H   UNL     1      49.845   6.115  13.568  0.00  0.00    +0.000 HD
BRANCH  17  24
ATOM     21  C   UNL     1      54.281   6.421  16.678  0.00  0.00    +0.000 C 
ATOM     22  N   UNL     1      52.847   6.435  16.505  0.00  0.00    +0.000 N 
ATOM     23  C   UNL     1      52.145   7.284  15.693  0.00  0.00    +0.000 A 
ATOM     24  C   UNL     1      50.793   6.962  15.777  0.00  0.00    +0.000 A 
ATOM     25  C   UNL     1      50.691   5.867  16.710  0.00  0.00    +0.000 A 
ATOM     26  C   UNL     1      49.719   5.061  17.299  0.00  0.00    +0.000 A 
ATOM     27 CL   UNL     1      48.068   5.308  17.008  0.00  0.00    +0.000 Cl
ATOM     28  N   UNL     1      50.023   4.095  18.185  0.00  0.00    +0.000 NA
ATOM     29  C   UNL     1      51.318   3.930  18.479  0.00  0.00    +0.000 A 
ATOM     30  N   UNL     1      52.360   4.626  18.005  0.00  0.00    +0.000 NA
ATOM     31  C   UNL     1      51.986   5.577  17.132  0.00  0.00    +0.000 A 
ENDBRANCH  17  24
ENDBRANCH   1  19
TORSDOF 7
ENDMDL
MODEL 7
REMARK VINA RESULT:    -6.625      4.493      6.235
REMARK INTER + INTRA:         -10.664
REMARK INTER:                  -9.561
REMARK INTRA:                  -1.103
REMARK UNBOUND:                -1.328
REMARK  Name = 
REMARK  8 active torsions:
REMARK  status: ('A' for Active; 'I' for Inactive)
REMARK    1  A    between atoms: C_1  and  N_2
REMARK    2  A    between atoms: C_4  and  C_5
REMARK    3  A    between atoms: N_7  and  C_8
REMARK    4  A    between atoms: C_8  and  C_9
REMARK    5  A    between atoms: C_12  and  C_13
REMARK    6  A    between atoms: C_13  and  O_14
REMARK    7  A    between atoms: O_14  and  C_15
REMARK    8  A    between atoms: C_15  and  C_16
REMARK                            x       y       z     vdW  Elec       q    Type
REMARK                         _______ _______ _______ _____ _____    ______ ____
ROOT
ATOM      1  C   UNL     1      47.934   7.629  12.701  0.00  0.00    +0.000 C 
ENDROOT
BRANCH   1   2
ATOM      2  C   UNL     1      46.944   6.562  12.320  0.00  0.00    +0.000 A 
ATOM      3  C   UNL     1      46.325   6.578  11.063  0.00  0.00    +0.000 A 
ATOM      4  C   UNL     1      45.421   5.572  10.703  0.00  0.00    +0.000 A 
ATOM      5  C   UNL     1      45.110   4.538  11.594  0.00  0.00    +0.000 A 
ATOM      6  C   UNL     1      45.719   4.532  12.856  0.00  0.00    +0.000 A 
ATOM      7  C   UNL     1      46.624   5.535  13.216  0.00  0.00    +0.000 A 
BRANCH   5   8
ATOM      8  C   UNL     1      44.124   3.464  11.211  0.00  0.00    +0.000 C 
BRANCH   8   9
ATOM      9  O   UNL     1      44.809   2.402  10.555  0.00  0.00    +0.000 OA
BRANCH   9  10
ATOM     10  C   UNL     1      44.407   2.285   9.190  0.00  0.00    +0.000 C 
BRANCH  10  11
ATOM     11  C   UNL     1      45.607   2.309   8.286  0.00  0.00    +0.000 A 
ATOM     12  C   UNL     1      46.107   3.492   7.733  0.00  0.00    +0.000 A 
ATOM     13  C   UNL     1      47.240   3.456   6.927  0.00  0.00    +0.000 A 
ATOM     14  C   UNL     1      47.853   2.234   6.711  0.00  0.00    +0.000 A 
ATOM     15  N   UNL     1      47.418   1.072   7.244  0.00  0.00    +0.000 NA
ATOM     16  C   UNL     1      46.312   1.139   8.018  0.00  0.00    +0.000 A 
ENDBRANCH  10  11
ENDBRANCH   9  10
ENDBRANCH   8   9
ENDBRANCH   5   8
ENDBRANCH   1   2
BRANCH   1  19
ATOM     17  C   UNL     1      50.256   8.098  12.103  0.00  0.00    +0.000 C 
ATOM     18  O   UNL     1      50.574   8.186  13.283  0.00  0.00    +0.000 OA
ATOM     19  N   UNL     1      48.973   7.779  11.711  0.00  0.00    +0.000 N 
ATOM     20  H   UNL     1      48.718   7.821  10.735  0.00  0.00    +0.000 HD
BRANCH  17  24
ATOM     21  C   UNL     1      53.578   7.159   8.504  0.00  0.00    +0.000 C 
ATOM     22  N   UNL     1      52.703   7.871   9.407  0.00  0.00    +0.000 N 
ATOM     23  C   UNL     1      51.846   7.301  10.308  0.00  0.00    +0.000 A 
ATOM     24  C   UNL     1      51.203   8.316  11.012  0.00  0.00    +0.000 A 
ATOM     25  C   UNL     1      51.699   9.560  10.479  0.00  0.00    +0.000 A 
ATOM     26  C   UNL     1      51.521  10.933  10.645  0.00  0.00    +0.000 A 
ATOM     27 CL   UNL     1      50.369  11.554  11.721  0.00  0.00    +0.000 Cl
ATOM     28  N   UNL     1      52.193  11.840   9.913  0.00  0.00    +0.000 NA
ATOM     29  C   UNL     1      53.059  11.368   9.009  0.00  0.00    +0.000 A 
ATOM     30  N   UNL     1      53.333  10.086   8.730  0.00  0.00    +0.000 NA
ATOM     31  C   UNL     1      52.624   9.233   9.490  0.00  0.00    +0.000 A 
ENDBRANCH  17  24
ENDBRANCH   1  19
TORSDOF 7
ENDMDL
MODEL 8
REMARK VINA RESULT:    -6.593      2.112      3.132
REMARK INTER + INTRA:         -10.619
REMARK INTER:                  -9.632
REMARK INTRA:                  -0.987
REMARK UNBOUND:                -1.328
REMARK  Name = 
REMARK  8 active torsions:
REMARK  status: ('A' for Active; 'I' for Inactive)
REMARK    1  A    between atoms: C_1  and  N_2
REMARK    2  A    between atoms: C_4  and  C_5
REMARK    3  A    between atoms: N_7  and  C_8
REMARK    4  A    between atoms: C_8  and  C_9
REMARK    5  A    between atoms: C_12  and  C_13
REMARK    6  A    between atoms: C_13  and  O_14
REMARK    7  A    between atoms: O_14  and  C_15
REMARK    8  A    between atoms: C_15  and  C_16
REMARK                            x       y       z     vdW  Elec       q    Type
REMARK                         _______ _______ _______ _____ _____    ______ ____
ROOT
ATOM      1  C   UNL     1      47.398   3.511  15.155  0.00  0.00    +0.000 C 
ENDROOT
BRANCH   1   2
ATOM      2  C   UNL     1      46.628   4.000  13.959  0.00  0.00    +0.000 A 
ATOM      3  C   UNL     1      46.549   5.369  13.671  0.00  0.00    +0.000 A 
ATOM      4  C   UNL     1      45.851   5.820  12.546  0.00  0.00    +0.000 A 
ATOM      5  C   UNL     1      45.209   4.913  11.692  0.00  0.00    +0.000 A 
ATOM      6  C   UNL     1      45.277   3.546  11.989  0.00  0.00    +0.000 A 
ATOM      7  C   UNL     1      45.976   3.095  13.112  0.00  0.00    +0.000 A 
BRANCH   5   8
ATOM      8  C   UNL     1      44.443   5.402  10.488  0.00  0.00    +0.000 C 
BRANCH   8   9
ATOM      9  O   UNL     1      44.421   4.382   9.495  0.00  0.00    +0.000 OA
BRANCH   9  10
ATOM     10  C   UNL     1      45.422   4.599   8.501  0.00  0.00    +0.000 C 
BRANCH  10  11
ATOM     11  C   UNL     1      45.996   3.290   8.039  0.00  0.00    +0.000 A 
ATOM     12  C   UNL     1      46.986   3.209   7.055  0.00  0.00    +0.000 A 
ATOM     13  C   UNL     1      47.503   1.970   6.690  0.00  0.00    +0.000 A 
ATOM     14  C   UNL     1      47.023   0.844   7.336  0.00  0.00    +0.000 A 
ATOM     15  N   UNL     1      46.084   0.878   8.306  0.00  0.00    +0.000 NA
ATOM     16  C   UNL     1      45.599   2.096   8.635  0.00  0.00    +0.000 A 
ENDBRANCH  10  11
ENDBRANCH   9  10
ENDBRANCH   8   9
ENDBRANCH   5   8
ENDBRANCH   1   2
BRANCH   1  19
ATOM     17  C   UNL     1      47.614   4.559  17.352  0.00  0.00    +0.000 C 
ATOM     18  O   UNL     1      47.107   3.587  17.899  0.00  0.00    +0.000 OA
ATOM     19  N   UNL     1      47.843   4.599  15.993  0.00  0.00    +0.000 N 
ATOM     20  H   UNL     1      48.160   5.453  15.559  0.00  0.00    +0.000 HD
BRANCH  17  24
ATOM     21  C   UNL     1      47.345   8.862  19.858  0.00  0.00    +0.000 C 
ATOM     22  N   UNL     1      47.881   7.693  19.200  0.00  0.00    +0.000 N 
ATOM     23  C   UNL     1      47.149   6.676  18.651  0.00  0.00    +0.000 A 
ATOM     24  C   UNL     1      48.025   5.753  18.086  0.00  0.00    +0.000 A 
ATOM     25  C   UNL     1      49.356   6.249  18.333  0.00  0.00    +0.000 A 
ATOM     26  C   UNL     1      50.684   5.888  18.108  0.00  0.00    +0.000 A 
ATOM     27 CL   UNL     1      51.089   4.415  17.377  0.00  0.00    +0.000 Cl
ATOM     28  N   UNL     1      51.717   6.644  18.523  0.00  0.00    +0.000 NA
ATOM     29  C   UNL     1      51.417   7.780  19.164  0.00  0.00    +0.000 A 
ATOM     30  N   UNL     1      50.199   8.256  19.460  0.00  0.00    +0.000 NA
ATOM     31  C   UNL     1      49.215   7.451  19.024  0.00  0.00    +0.000 A 
ENDBRANCH  17  24
ENDBRANCH   1  19
TORSDOF 7
ENDMDL
MODEL 9
REMARK VINA RESULT:    -6.327      3.972      9.364
REMARK INTER + INTRA:         -10.244
REMARK INTER:                  -8.492
REMARK INTRA:                  -1.752
REMARK UNBOUND:                -1.328
REMARK  Name = 
REMARK  8 active torsions:
REMARK  status: ('A' for Active; 'I' for Inactive)
REMARK    1  A    between atoms: C_1  and  N_2
REMARK    2  A    between atoms: C_4  and  C_5
REMARK    3  A    between atoms: N_7  and  C_8
REMARK    4  A    between atoms: C_8  and  C_9
REMARK    5  A    between atoms: C_12  and  C_13
REMARK    6  A    between atoms: C_13  and  O_14
REMARK    7  A    between atoms: O_14  and  C_15
REMARK    8  A    between atoms: C_15  and  C_16
REMARK                            x       y       z     vdW  Elec       q    Type
REMARK                         _______ _______ _______ _____ _____    ______ ____
ROOT
ATOM      1  C   UNL     1      47.660   3.481  16.437  0.00  0.00    +0.000 C 
ENDROOT
BRANCH   1   2
ATOM      2  C   UNL     1      47.952   4.239  17.703  0.00  0.00    +0.000 A 
ATOM      3  C   UNL     1      47.041   5.180  18.199  0.00  0.00    +0.000 A 
ATOM      4  C   UNL     1      47.305   5.867  19.389  0.00  0.00    +0.000 A 
ATOM      5  C   UNL     1      48.489   5.636  20.099  0.00  0.00    +0.000 A 
ATOM      6  C   UNL     1      49.407   4.706  19.594  0.00  0.00    +0.000 A 
ATOM      7  C   UNL     1      49.142   4.017  18.407  0.00  0.00    +0.000 A 
BRANCH   5   8
ATOM      8  C   UNL     1      48.781   6.390  21.373  0.00  0.00    +0.000 C 
BRANCH   8   9
ATOM      9  O   UNL     1      48.352   7.741  21.232  0.00  0.00    +0.000 OA
BRANCH   9  10
ATOM     10  C   UNL     1      49.402   8.573  20.739  0.00  0.00    +0.000 C 
BRANCH  10  11
ATOM     11  C   UNL     1      49.155   8.933  19.301  0.00  0.00    +0.000 A 
ATOM     12  C   UNL     1      49.888   8.375  18.250  0.00  0.00    +0.000 A 
ATOM     13  C   UNL     1      49.593   8.723  16.936  0.00  0.00    +0.000 A 
ATOM     14  C   UNL     1      48.555   9.611  16.710  0.00  0.00    +0.000 A 
ATOM     15  N   UNL     1      47.807  10.156  17.693  0.00  0.00    +0.000 NA
ATOM     16  C   UNL     1      48.121   9.802  18.959  0.00  0.00    +0.000 A 
ENDBRANCH  10  11
ENDBRANCH   9  10
ENDBRANCH   8   9
ENDBRANCH   5   8
ENDBRANCH   1   2
BRANCH   1  19
ATOM     17  C   UNL     1      46.802   4.126  14.242  0.00  0.00    +0.000 C 
ATOM     18  O   UNL     1      47.672   3.474  13.676  0.00  0.00    +0.000 OA
ATOM     19  N   UNL     1      46.685   4.157  15.615  0.00  0.00    +0.000 N 
ATOM     20  H   UNL     1      46.029   4.788  16.052  0.00  0.00    +0.000 HD
BRANCH  17  24
ATOM     21  C   UNL     1      42.601   5.368  11.858  0.00  0.00    +0.000 C 
ATOM     22  N   UNL     1      43.921   5.453  12.439  0.00  0.00    +0.000 N 
ATOM     23  C   UNL     1      44.545   4.471  13.158  0.00  0.00    +0.000 A 
ATOM     24  C   UNL     1      45.813   4.921  13.517  0.00  0.00    +0.000 A 
ATOM     25  C   UNL     1      45.937   6.258  12.990  0.00  0.00    +0.000 A 
ATOM     26  C   UNL     1      46.852   7.308  12.961  0.00  0.00    +0.000 A 
ATOM     27 CL   UNL     1      48.329   7.218  13.787  0.00  0.00    +0.000 Cl
ATOM     28  N   UNL     1      46.591   8.475  12.346  0.00  0.00    +0.000 NA
ATOM     29  C   UNL     1      45.401   8.590  11.746  0.00  0.00    +0.000 A 
ATOM     30  N   UNL     1      44.419   7.679  11.693  0.00  0.00    +0.000 NA
ATOM     31  C   UNL     1      44.742   6.541  12.332  0.00  0.00    +0.000 A 
ENDBRANCH  17  24
ENDBRANCH   1  19
TORSDOF 7
ENDMDL
