MODEL 1
REMARK VINA RESULT:    -8.627      0.000      0.000
REMARK INTER + INTRA:         -12.457
REMARK INTER:                 -11.653
REMARK INTRA:                  -0.804
REMARK UNBOUND:                -0.804
REMARK  Name = 
REMARK  7 active torsions:
REMARK  status: ('A' for Active; 'I' for Inactive)
REMARK    1  A    between atoms: C_1  and  C_2
REMARK    2  A    between atoms: C_5  and  C_6
REMARK    3  A    between atoms: C_6  and  N_7
REMARK    4  A    between atoms: N_7  and  C_8
REMARK    5  A    between atoms: C_11  and  C_12
REMARK    6  A    between atoms: C_12  and  N_13
REMARK    7  A    between atoms: C_14  and  C_16
REMARK                            x       y       z     vdW  Elec       q    Type
REMARK                         _______ _______ _______ _____ _____    ______ ____
ROOT
ATOM      1  C   UNL     1      44.658   6.014  11.066  0.00  0.00    +0.000 A 
ATOM      2  C   UNL     1      45.869   5.453  11.496  0.00  0.00    +0.000 A 
ATOM      3  C   UNL     1      46.748   6.163  12.326  0.00  0.00    +0.000 A 
ATOM      4  C   UNL     1      46.446   7.469  12.729  0.00  0.00    +0.000 A 
ATOM      5  C   UNL     1      45.292   8.068  12.222  0.00  0.00    +0.000 A 
ATOM      6  C   UNL     1      44.420   7.352  11.394  0.00  0.00    +0.000 A 
ENDROOT
BRANCH   1   7
ATOM      7  N   UNL     1      43.811   5.268  10.222  0.00  0.00    +0.000 N 
ATOM      8  H   UNL     1      43.845   5.628   9.269  0.00  0.00    +0.000 HD
BRANCH   7   9
ATOM      9  C   UNL     1      43.980   3.814  10.244  0.00  0.00    +0.000 C 
BRANCH   9  14
ATOM     10  C   UNL     1      47.616   2.322   6.030  0.00  0.00    +0.000 C 
ATOM     11  C   UNL     1      46.668   2.651   7.143  0.00  0.00    +0.000 A 
ATOM     12  C   UNL     1      46.249   1.674   8.040  0.00  0.00    +0.000 A 
ATOM     13  C   UNL     1      45.356   2.026   9.052  0.00  0.00    +0.000 A 
ATOM     14  C   UNL     1      44.887   3.338   9.140  0.00  0.00    +0.000 A 
ATOM     15  C   UNL     1      45.385   4.248   8.214  0.00  0.00    +0.000 A 
ATOM     16  N   UNL     1      46.252   3.935   7.223  0.00  0.00    +0.000 NA
ENDBRANCH   9  14
ENDBRANCH   7   9
ENDBRANCH   1   7
BRANCH   4  17
ATOM     17  C   UNL     1      47.348   8.241  13.654  0.00  0.00    +0.000 C 
BRANCH  17  18
ATOM     18  N   UNL     1      47.695   7.475  14.823  0.00  0.00    +0.000 N 
ATOM     19  C   UNL     1      48.931   6.894  14.939  0.00  0.00    +0.000 C 
ATOM     20  O   UNL     1      49.797   7.030  14.079  0.00  0.00    +0.000 OA
ATOM     21  H   UNL     1      46.932   7.155  15.412  0.00  0.00    +0.000 HD
BRANCH  19  22
ATOM     22  C   UNL     1      49.196   6.158  16.180  0.00  0.00    +0.000 A 
ATOM     23  C   UNL     1      50.236   6.560  17.009  0.00  0.00    +0.000 A 
ATOM     24  S   UNL     1      50.358   5.648  18.444  0.00  0.00    +0.000 S 
ATOM     25  C   UNL     1      49.063   4.647  17.983  0.00  0.00    +0.000 A 
ATOM     26  N   UNL     1      48.653   3.621  18.778  0.00  0.00    +0.000 NA
ATOM     27  C   UNL     1      47.685   2.921  18.286  0.00  0.00    +0.000 A 
ATOM     28  N   UNL     1      47.090   3.152  17.074  0.00  0.00    +0.000 N 
ATOM     29  C   UNL     1      47.454   4.190  16.248  0.00  0.00    +0.000 A 
ATOM     30  O   UNL     1      46.881   4.389  15.182  0.00  0.00    +0.000 OA
ATOM     31  C   UNL     1      48.539   5.008  16.754  0.00  0.00    +0.000 A 
ATOM     32  H   UNL     1      46.335   2.566  16.748  0.00  0.00    +0.000 HD
ENDBRANCH  19  22
ENDBRANCH  17  18
ENDBRANCH   4  17
TORSDOF 6
ENDMDL
MODEL 2
REMARK VINA RESULT:    -8.395      1.847      2.305
REMARK INTER + INTRA:         -12.143
REMARK INTER:                 -11.232
REMARK INTRA:                  -0.911
REMARK UNBOUND:                -0.804
REMARK  Name = 
REMARK  7 active torsions:
REMARK  status: ('A' for Active; 'I' for Inactive)
REMARK    1  A    between atoms: C_1  and  C_2
REMARK    2  A    between atoms: C_5  and  C_6
REMARK    3  A    between atoms: C_6  and  N_7
REMARK    4  A    between atoms: N_7  and  C_8
REMARK    5  A    between atoms: C_11  and  C_12
REMARK    6  A    between atoms: C_12  and  N_13
REMARK    7  A    between atoms: C_14  and  C_16
REMARK                            x       y       z     vdW  Elec       q    Type
REMARK                         _______ _______ _______ _____ _____    ______ ____
ROOT
ATOM      1  C   UNL     1      45.258   4.340  11.982  0.00  0.00    +0.000 A 
ATOM      2  C   UNL     1      45.470   5.673  11.601  0.00  0.00    +0.000 A 
ATOM      3  C   UNL     1      46.449   6.463  12.224  0.00  0.00    +0.000 A 
ATOM      4  C   UNL     1      47.227   5.941  13.265  0.00  0.00    +0.000 A 
ATOM      5  C   UNL     1      46.950   4.649  13.714  0.00  0.00    +0.000 A 
ATOM      6  C   UNL     1      45.972   3.868  13.088  0.00  0.00    +0.000 A 
ENDROOT
BRANCH   1   7
ATOM      7  N   UNL     1      44.256   3.588  11.337  0.00  0.00    +0.000 N 
ATOM      8  H   UNL     1      43.415   3.544  11.910  0.00  0.00    +0.000 HD
BRANCH   7   9
ATOM      9  C   UNL     1      43.938   3.966   9.959  0.00  0.00    +0.000 C 
BRANCH   9  14
ATOM     10  C   UNL     1      47.934   2.128   6.236  0.00  0.00    +0.000 C 
ATOM     11  C   UNL     1      46.886   2.548   7.222  0.00  0.00    +0.000 A 
ATOM     12  C   UNL     1      46.298   1.624   8.080  0.00  0.00    +0.000 A 
ATOM     13  C   UNL     1      45.318   2.061   8.972  0.00  0.00    +0.000 A 
ATOM     14  C   UNL     1      44.934   3.403   8.979  0.00  0.00    +0.000 A 
ATOM     15  C   UNL     1      45.599   4.253   8.103  0.00  0.00    +0.000 A 
ATOM     16  N   UNL     1      46.553   3.858   7.228  0.00  0.00    +0.000 NA
ENDBRANCH   9  14
ENDBRANCH   7   9
ENDBRANCH   1   7
BRANCH   4  17
ATOM     17  C   UNL     1      48.312   6.749  13.922  0.00  0.00    +0.000 C 
BRANCH  17  18
ATOM     18  N   UNL     1      48.063   6.933  15.328  0.00  0.00    +0.000 N 
ATOM     19  C   UNL     1      49.007   6.584  16.260  0.00  0.00    +0.000 C 
ATOM     20  O   UNL     1      50.105   6.138  15.936  0.00  0.00    +0.000 OA
ATOM     21  H   UNL     1      47.098   7.064  15.616  0.00  0.00    +0.000 HD
BRANCH  19  22
ATOM     22  C   UNL     1      48.668   6.836  17.664  0.00  0.00    +0.000 A 
ATOM     23  C   UNL     1      48.353   8.126  18.074  0.00  0.00    +0.000 A 
ATOM     24  S   UNL     1      47.909   8.231  19.717  0.00  0.00    +0.000 S 
ATOM     25  C   UNL     1      48.178   6.568  19.953  0.00  0.00    +0.000 A 
ATOM     26  N   UNL     1      47.994   5.996  21.174  0.00  0.00    +0.000 NA
ATOM     27  C   UNL     1      48.272   4.735  21.217  0.00  0.00    +0.000 A 
ATOM     28  N   UNL     1      48.714   3.994  20.153  0.00  0.00    +0.000 N 
ATOM     29  C   UNL     1      48.889   4.523  18.896  0.00  0.00    +0.000 A 
ATOM     30  O   UNL     1      49.257   3.827  17.956  0.00  0.00    +0.000 OA
ATOM     31  C   UNL     1      48.593   5.940  18.792  0.00  0.00    +0.000 A 
ATOM     32  H   UNL     1      48.910   3.009  20.254  0.00  0.00    +0.000 HD
ENDBRANCH  19  22
ENDBRANCH  17  18
ENDBRANCH   4  17
TORSDOF 6
ENDMDL
MODEL 3
REMARK VINA RESULT:    -8.183      2.363      2.966
REMARK INTER + INTRA:         -11.857
REMARK INTER:                 -10.720
REMARK INTRA:                  -1.136
REMARK UNBOUND:                -0.804
REMARK  Name = 
REMARK  7 active torsions:
REMARK  status: ('A' for Active; 'I' for Inactive)
REMARK    1  A    between atoms: C_1  and  C_2
REMARK    2  A    between atoms: C_5  and  C_6
REMARK    3  A    between atoms: C_6  and  N_7
REMARK    4  A    between atoms: N_7  and  C_8
REMARK    5  A    between atoms: C_11  and  C_12
REMARK    6  A    between atoms: C_12  and  N_13
REMARK    7  A    between atoms: C_14  and  C_16
REMARK                            x       y       z     vdW  Elec       q    Type
REMARK                         _______ _______ _______ _____ _____    ______ ____
ROOT
ATOM      1  C   UNL     1      45.121   4.176  12.050  0.00  0.00    +0.000 A 
ATOM      2  C   UNL     1      45.208   5.573  11.966  0.00  0.00    +0.000 A 
ATOM      3  C   UNL     1      46.172   6.289  12.691  0.00  0.00    +0.000 A 
ATOM      4  C   UNL     1      47.062   5.621  13.541  0.00  0.00    +0.000 A 
ATOM      5  C   UNL     1      46.913   4.243  13.704  0.00  0.00    +0.000 A 
ATOM      6  C   UNL     1      45.949   3.537  12.977  0.00  0.00    +0.000 A 
ENDROOT
BRANCH   1   7
ATOM      7  N   UNL     1      44.129   3.499  11.312  0.00  0.00    +0.000 N 
ATOM      8  H   UNL     1      43.260   3.446  11.842  0.00  0.00    +0.000 HD
BRANCH   7   9
ATOM      9  C   UNL     1      43.887   3.975   9.948  0.00  0.00    +0.000 C 
BRANCH   9  14
ATOM     10  C   UNL     1      47.925   2.181   6.249  0.00  0.00    +0.000 C 
ATOM     11  C   UNL     1      46.868   2.589   7.229  0.00  0.00    +0.000 A 
ATOM     12  C   UNL     1      46.293   1.662   8.093  0.00  0.00    +0.000 A 
ATOM     13  C   UNL     1      45.304   2.088   8.979  0.00  0.00    +0.000 A 
ATOM     14  C   UNL     1      44.896   3.423   8.976  0.00  0.00    +0.000 A 
ATOM     15  C   UNL     1      45.548   4.278   8.094  0.00  0.00    +0.000 A 
ATOM     16  N   UNL     1      46.511   3.894   7.225  0.00  0.00    +0.000 NA
ENDBRANCH   9  14
ENDBRANCH   7   9
ENDBRANCH   1   7
BRANCH   4  17
ATOM     17  C   UNL     1      48.135   6.357  14.298  0.00  0.00    +0.000 C 
BRANCH  17  18
ATOM     18  N   UNL     1      47.956   6.241  15.722  0.00  0.00    +0.000 N 
ATOM     19  C   UNL     1      49.033   6.056  16.551  0.00  0.00    +0.000 C 
ATOM     20  O   UNL     1      50.184   6.017  16.123  0.00  0.00    +0.000 OA
ATOM     21  H   UNL     1      47.022   6.028  16.058  0.00  0.00    +0.000 HD
BRANCH  19  22
ATOM     22  C   UNL     1      48.750   5.978  17.988  0.00  0.00    +0.000 A 
ATOM     23  C   UNL     1      48.970   4.787  18.668  0.00  0.00    +0.000 A 
ATOM     24  S   UNL     1      48.664   4.889  20.342  0.00  0.00    +0.000 S 
ATOM     25  C   UNL     1      48.173   6.512  20.209  0.00  0.00    +0.000 A 
ATOM     26  N   UNL     1      47.756   7.209  21.301  0.00  0.00    +0.000 NA
ATOM     27  C   UNL     1      47.376   8.417  21.047  0.00  0.00    +0.000 A 
ATOM     28  N   UNL     1      47.376   8.993  19.803  0.00  0.00    +0.000 N 
ATOM     29  C   UNL     1      47.811   8.336  18.676  0.00  0.00    +0.000 A 
ATOM     30  O   UNL     1      47.827   8.888  17.582  0.00  0.00    +0.000 OA
ATOM     31  C   UNL     1      48.248   6.972  18.906  0.00  0.00    +0.000 A 
ATOM     32  H   UNL     1      47.068   9.945  19.674  0.00  0.00    +0.000 HD
ENDBRANCH  19  22
ENDBRANCH  17  18
ENDBRANCH   4  17
TORSDOF 6
ENDMDL
MODEL 4
REMARK VINA RESULT:    -7.794      2.420      3.508
REMARK INTER + INTRA:         -11.332
REMARK INTER:                 -10.159
REMARK INTRA:                  -1.174
REMARK UNBOUND:                -0.804
REMARK  Name = 
REMARK  7 active torsions:
REMARK  status: ('A' for Active; 'I' for Inactive)
REMARK    1  A    between atoms: C_1  and  C_2
REMARK    2  A    between atoms: C_5  and  C_6
REMARK    3  A    between atoms: C_6  and  N_7
REMARK    4  A    between atoms: N_7  and  C_8
REMARK    5  A    between atoms: C_11  and  C_12
REMARK    6  A    between atoms: C_12  and  N_13
REMARK    7  A    between atoms: C_14  and  C_16
REMARK                            x       y       z     vdW  Elec       q    Type
REMARK                         _______ _______ _______ _____ _____    ______ ____
ROOT
ATOM      1  C   UNL     1      45.310   5.472  11.749  0.00  0.00    +0.000 A 
ATOM      2  C   UNL     1      46.474   6.211  12.004  0.00  0.00    +0.000 A 
ATOM      3  C   UNL     1      47.272   5.950  13.128  0.00  0.00    +0.000 A 
ATOM      4  C   UNL     1      46.908   4.954  14.042  0.00  0.00    +0.000 A 
ATOM      5  C   UNL     1      45.698   4.287  13.846  0.00  0.00    +0.000 A 
ATOM      6  C   UNL     1      44.908   4.552  12.722  0.00  0.00    +0.000 A 
ENDROOT
BRANCH   1   7
ATOM      7  N   UNL     1      44.532   5.777  10.614  0.00  0.00    +0.000 N 
ATOM      8  H   UNL     1      45.079   6.305   9.935  0.00  0.00    +0.000 HD
BRANCH   7   9
ATOM      9  C   UNL     1      43.838   4.656   9.976  0.00  0.00    +0.000 C 
BRANCH   9  14
ATOM     10  C   UNL     1      47.619   1.819   6.681  0.00  0.00    +0.000 C 
ATOM     11  C   UNL     1      46.617   2.503   7.560  0.00  0.00    +0.000 A 
ATOM     12  C   UNL     1      45.838   1.779   8.457  0.00  0.00    +0.000 A 
ATOM     13  C   UNL     1      44.909   2.459   9.245  0.00  0.00    +0.000 A 
ATOM     14  C   UNL     1      44.764   3.841   9.112  0.00  0.00    +0.000 A 
ATOM     15  C   UNL     1      45.607   4.478   8.208  0.00  0.00    +0.000 A 
ATOM     16  N   UNL     1      46.516   3.845   7.432  0.00  0.00    +0.000 NA
ENDBRANCH   9  14
ENDBRANCH   7   9
ENDBRANCH   1   7
BRANCH   4  17
ATOM     17  C   UNL     1      47.765   4.623  15.234  0.00  0.00    +0.000 C 
BRANCH  17  18
ATOM     18  N   UNL     1      47.678   5.636  16.252  0.00  0.00    +0.000 N 
ATOM     19  C   UNL     1      48.785   6.002  16.974  0.00  0.00    +0.000 C 
ATOM     20  O   UNL     1      49.891   5.510  16.762  0.00  0.00    +0.000 OA
ATOM     21  H   UNL     1      46.752   5.868  16.600  0.00  0.00    +0.000 HD
BRANCH  19  22
ATOM     22  C   UNL     1      48.599   7.063  17.969  0.00  0.00    +0.000 A 
ATOM     23  C   UNL     1      48.680   6.760  19.322  0.00  0.00    +0.000 A 
ATOM     24  S   UNL     1      48.518   8.118  20.339  0.00  0.00    +0.000 S 
ATOM     25  C   UNL     1      48.275   9.152  19.010  0.00  0.00    +0.000 A 
ATOM     26  N   UNL     1      48.053  10.482  19.190  0.00  0.00    +0.000 NA
ATOM     27  C   UNL     1      47.848  11.139  18.097  0.00  0.00    +0.000 A 
ATOM     28  N   UNL     1      47.845  10.589  16.842  0.00  0.00    +0.000 N 
ATOM     29  C   UNL     1      48.090   9.256  16.610  0.00  0.00    +0.000 A 
ATOM     30  O   UNL     1      48.111   8.799  15.472  0.00  0.00    +0.000 OA
ATOM     31  C   UNL     1      48.326   8.471  17.807  0.00  0.00    +0.000 A 
ATOM     32  H   UNL     1      47.680  11.161  16.027  0.00  0.00    +0.000 HD
ENDBRANCH  19  22
ENDBRANCH  17  18
ENDBRANCH   4  17
TORSDOF 6
ENDMDL
MODEL 5
REMARK VINA RESULT:    -7.594      1.767      2.341
REMARK INTER + INTRA:         -11.061
REMARK INTER:                  -9.943
REMARK INTRA:                  -1.118
REMARK UNBOUND:                -0.804
REMARK  Name = 
REMARK  7 active torsions:
REMARK  status: ('A' for Active; 'I' for Inactive)
REMARK    1  A    between atoms: C_1  and  C_2
REMARK    2  A    between atoms: C_5  and  C_6
REMARK    3  A    between atoms: C_6  and  N_7
REMARK    4  A    between atoms: N_7  and  C_8
REMARK    5  A    between atoms: C_11  and  C_12
REMARK    6  A    between atoms: C_12  and  N_13
REMARK    7  A    between atoms: C_14  and  C_16
REMARK                            x       y       z     vdW  Elec       q    Type
REMARK                         _______ _______ _______ _____ _____    ______ ____
ROOT
ATOM      1  C   UNL     1      45.222   5.304  12.008  0.00  0.00    +0.000 A 
ATOM      2  C   UNL     1      45.212   6.609  11.495  0.00  0.00    +0.000 A 
ATOM      3  C   UNL     1      46.194   7.543  11.858  0.00  0.00    +0.000 A 
ATOM      4  C   UNL     1      47.202   7.198  12.766  0.00  0.00    +0.000 A 
ATOM      5  C   UNL     1      47.157   5.934  13.355  0.00  0.00    +0.000 A 
ATOM      6  C   UNL     1      46.175   5.008  12.988  0.00  0.00    +0.000 A 
ENDROOT
BRANCH   1   7
ATOM      7  N   UNL     1      44.209   4.402  11.625  0.00  0.00    +0.000 N 
ATOM      8  H   UNL     1      43.400   4.489  12.237  0.00  0.00    +0.000 HD
BRANCH   7   9
ATOM      9  C   UNL     1      43.810   4.425  10.216  0.00  0.00    +0.000 C 
BRANCH   9  14
ATOM     10  C   UNL     1      47.373   1.362   6.880  0.00  0.00    +0.000 C 
ATOM     11  C   UNL     1      46.466   2.209   7.719  0.00  0.00    +0.000 A 
ATOM     12  C   UNL     1      46.366   3.580   7.507  0.00  0.00    +0.000 A 
ATOM     13  C   UNL     1      45.517   4.329   8.322  0.00  0.00    +0.000 A 
ATOM     14  C   UNL     1      44.800   3.701   9.341  0.00  0.00    +0.000 A 
ATOM     15  C   UNL     1      44.947   2.323   9.457  0.00  0.00    +0.000 A 
ATOM     16  N   UNL     1      45.760   1.572   8.681  0.00  0.00    +0.000 NA
ENDBRANCH   9  14
ENDBRANCH   7   9
ENDBRANCH   1   7
BRANCH   4  17
ATOM     17  C   UNL     1      48.293   8.164  13.141  0.00  0.00    +0.000 C 
BRANCH  17  18
ATOM     18  N   UNL     1      49.363   7.512  13.848  0.00  0.00    +0.000 N 
ATOM     19  C   UNL     1      49.652   7.845  15.147  0.00  0.00    +0.000 C 
ATOM     20  O   UNL     1      48.996   8.680  15.765  0.00  0.00    +0.000 OA
ATOM     21  H   UNL     1      50.052   7.014  13.292  0.00  0.00    +0.000 HD
BRANCH  19  22
ATOM     22  C   UNL     1      50.743   7.103  15.788  0.00  0.00    +0.000 A 
ATOM     23  C   UNL     1      52.061   7.464  15.538  0.00  0.00    +0.000 A 
ATOM     24  S   UNL     1      53.199   6.553  16.420  0.00  0.00    +0.000 S 
ATOM     25  C   UNL     1      51.975   5.604  17.124  0.00  0.00    +0.000 A 
ATOM     26  N   UNL     1      52.279   4.600  17.990  0.00  0.00    +0.000 NA
ATOM     27  C   UNL     1      51.255   3.938  18.418  0.00  0.00    +0.000 A 
ATOM     28  N   UNL     1      49.957   4.189  18.061  0.00  0.00    +0.000 N 
ATOM     29  C   UNL     1      49.600   5.209  17.210  0.00  0.00    +0.000 A 
ATOM     30  O   UNL     1      48.426   5.428  16.933  0.00  0.00    +0.000 OA
ATOM     31  C   UNL     1      50.715   5.984  16.698  0.00  0.00    +0.000 A 
ATOM     32  H   UNL     1      49.201   3.635  18.435  0.00  0.00    +0.000 HD
ENDBRANCH  19  22
ENDBRANCH  17  18
ENDBRANCH   4  17
TORSDOF 6
ENDMDL
MODEL 6
REMARK VINA RESULT:    -7.539      1.873      2.525
REMARK INTER + INTRA:         -10.987
REMARK INTER:                 -10.264
REMARK INTRA:                  -0.723
REMARK UNBOUND:                -0.804
REMARK  Name = 
REMARK  7 active torsions:
REMARK  status: ('A' for Active; 'I' for Inactive)
REMARK    1  A    between atoms: C_1  and  C_2
REMARK    2  A    between atoms: C_5  and  C_6
REMARK    3  A    between atoms: C_6  and  N_7
REMARK    4  A    between atoms: N_7  and  C_8
REMARK    5  A    between atoms: C_11  and  C_12
REMARK    6  A    between atoms: C_12  and  N_13
REMARK    7  A    between atoms: C_14  and  C_16
REMARK                            x       y       z     vdW  Elec       q    Type
REMARK                         _______ _______ _______ _____ _____    ______ ____
ROOT
ATOM      1  C   UNL     1      45.225   6.365  11.415  0.00  0.00    +0.000 A 
ATOM      2  C   UNL     1      46.078   5.436  12.029  0.00  0.00    +0.000 A 
ATOM      3  C   UNL     1      47.020   5.835  12.990  0.00  0.00    +0.000 A 
ATOM      4  C   UNL     1      47.147   7.183  13.344  0.00  0.00    +0.000 A 
ATOM      5  C   UNL     1      46.371   8.122  12.662  0.00  0.00    +0.000 A 
ATOM      6  C   UNL     1      45.434   7.716  11.705  0.00  0.00    +0.000 A 
ENDROOT
BRANCH   1   7
ATOM      7  N   UNL     1      44.303   5.921  10.447  0.00  0.00    +0.000 N 
ATOM      8  H   UNL     1      44.567   6.252   9.520  0.00  0.00    +0.000 HD
BRANCH   7   9
ATOM      9  C   UNL     1      44.008   4.487  10.431  0.00  0.00    +0.000 C 
BRANCH   9  14
ATOM     10  C   UNL     1      47.181   1.355   6.781  0.00  0.00    +0.000 C 
ATOM     11  C   UNL     1      46.375   2.220   7.701  0.00  0.00    +0.000 A 
ATOM     12  C   UNL     1      46.305   3.596   7.513  0.00  0.00    +0.000 A 
ATOM     13  C   UNL     1      45.552   4.361   8.404  0.00  0.00    +0.000 A 
ATOM     14  C   UNL     1      44.898   3.742   9.471  0.00  0.00    +0.000 A 
ATOM     15  C   UNL     1      45.006   2.359   9.558  0.00  0.00    +0.000 A 
ATOM     16  N   UNL     1      45.728   1.592   8.709  0.00  0.00    +0.000 NA
ENDBRANCH   9  14
ENDBRANCH   7   9
ENDBRANCH   1   7
BRANCH   4  17
ATOM     17  C   UNL     1      48.118   7.636  14.401  0.00  0.00    +0.000 C 
BRANCH  17  18
ATOM     18  N   UNL     1      48.060   6.799  15.571  0.00  0.00    +0.000 N 
ATOM     19  C   UNL     1      49.205   6.277  16.117  0.00  0.00    +0.000 C 
ATOM     20  O   UNL     1      50.316   6.526  15.657  0.00  0.00    +0.000 OA
ATOM     21  H   UNL     1      47.160   6.393  15.808  0.00  0.00    +0.000 HD
BRANCH  19  22
ATOM     22  C   UNL     1      49.043   5.459  17.324  0.00  0.00    +0.000 A 
ATOM     23  C   UNL     1      48.660   4.129  17.207  0.00  0.00    +0.000 A 
ATOM     24  S   UNL     1      48.594   3.304  18.697  0.00  0.00    +0.000 S 
ATOM     25  C   UNL     1      49.018   4.709  19.557  0.00  0.00    +0.000 A 
ATOM     26  N   UNL     1      49.121   4.695  20.913  0.00  0.00    +0.000 NA
ATOM     27  C   UNL     1      49.412   5.839  21.436  0.00  0.00    +0.000 A 
ATOM     28  N   UNL     1      49.611   6.995  20.728  0.00  0.00    +0.000 N 
ATOM     29  C   UNL     1      49.542   7.052  19.356  0.00  0.00    +0.000 A 
ATOM     30  O   UNL     1      49.754   8.096  18.749  0.00  0.00    +0.000 OA
ATOM     31  C   UNL     1      49.215   5.791  18.718  0.00  0.00    +0.000 A 
ATOM     32  H   UNL     1      49.839   7.858  21.200  0.00  0.00    +0.000 HD
ENDBRANCH  19  22
ENDBRANCH  17  18
ENDBRANCH   4  17
TORSDOF 6
ENDMDL
MODEL 7
REMARK VINA RESULT:    -7.471      3.841      5.248
REMARK INTER + INTRA:         -10.895
REMARK INTER:                  -9.680
REMARK INTRA:                  -1.215
REMARK UNBOUND:                -0.804
REMARK  Name = 
REMARK  7 active torsions:
REMARK  status: ('A' for Active; 'I' for Inactive)
REMARK    1  A    between atoms: C_1  and  C_2
REMARK    2  A    between atoms: C_5  and  C_6
REMARK    3  A    between atoms: C_6  and  N_7
REMARK    4  A    between atoms: N_7  and  C_8
REMARK    5  A    between atoms: C_11  and  C_12
REMARK    6  A    between atoms: C_12  and  N_13
REMARK    7  A    between atoms: C_14  and  C_16
REMARK                            x       y       z     vdW  Elec       q    Type
REMARK                         _______ _______ _______ _____ _____    ______ ____
ROOT
ATOM      1  C   UNL     1      45.088   5.101  11.828  0.00  0.00    +0.000 A 
ATOM      2  C   UNL     1      44.343   6.191  11.356  0.00  0.00    +0.000 A 
ATOM      3  C   UNL     1      44.745   7.512  11.603  0.00  0.00    +0.000 A 
ATOM      4  C   UNL     1      45.898   7.775  12.353  0.00  0.00    +0.000 A 
ATOM      5  C   UNL     1      46.586   6.695  12.909  0.00  0.00    +0.000 A 
ATOM      6  C   UNL     1      46.178   5.381  12.658  0.00  0.00    +0.000 A 
ENDROOT
BRANCH   1   7
ATOM      7  N   UNL     1      44.640   3.791  11.566  0.00  0.00    +0.000 N 
ATOM      8  H   UNL     1      44.111   3.427  12.357  0.00  0.00    +0.000 HD
BRANCH   7   9
ATOM      9  C   UNL     1      43.918   3.585  10.308  0.00  0.00    +0.000 C 
BRANCH   9  14
ATOM     10  C   UNL     1      47.630   2.498   6.036  0.00  0.00    +0.000 C 
ATOM     11  C   UNL     1      46.664   2.721   7.160  0.00  0.00    +0.000 A 
ATOM     12  C   UNL     1      46.268   1.672   7.984  0.00  0.00    +0.000 A 
ATOM     13  C   UNL     1      45.356   1.926   9.009  0.00  0.00    +0.000 A 
ATOM     14  C   UNL     1      44.847   3.215   9.183  0.00  0.00    +0.000 A 
ATOM     15  C   UNL     1      45.325   4.201   8.326  0.00  0.00    +0.000 A 
ATOM     16  N   UNL     1      46.208   3.984   7.325  0.00  0.00    +0.000 NA
ENDBRANCH   9  14
ENDBRANCH   7   9
ENDBRANCH   1   7
BRANCH   4  17
ATOM     17  C   UNL     1      46.378   9.180  12.599  0.00  0.00    +0.000 C 
BRANCH  17  18
ATOM     18  N   UNL     1      47.639   9.433  11.952  0.00  0.00    +0.000 N 
ATOM     19  C   UNL     1      48.657  10.062  12.621  0.00  0.00    +0.000 C 
ATOM     20  O   UNL     1      48.551  10.400  13.797  0.00  0.00    +0.000 OA
ATOM     21  H   UNL     1      47.659   9.386  10.937  0.00  0.00    +0.000 HD
BRANCH  19  22
ATOM     22  C   UNL     1      49.911  10.248  11.884  0.00  0.00    +0.000 A 
ATOM     23  C   UNL     1      50.368  11.533  11.617  0.00  0.00    +0.000 A 
ATOM     24  S   UNL     1      51.875  11.572  10.822  0.00  0.00    +0.000 S 
ATOM     25  C   UNL     1      51.944   9.874  10.753  0.00  0.00    +0.000 A 
ATOM     26  N   UNL     1      52.995   9.239  10.166  0.00  0.00    +0.000 NA
ATOM     27  C   UNL     1      52.898   7.951  10.151  0.00  0.00    +0.000 A 
ATOM     28  N   UNL     1      51.848   7.240  10.670  0.00  0.00    +0.000 N 
ATOM     29  C   UNL     1      50.777   7.836  11.294  0.00  0.00    +0.000 A 
ATOM     30  O   UNL     1      49.867   7.170  11.775  0.00  0.00    +0.000 OA
ATOM     31  C   UNL     1      50.836   9.285  11.336  0.00  0.00    +0.000 A 
ATOM     32  H   UNL     1      51.835   6.231  10.628  0.00  0.00    +0.000 HD
ENDBRANCH  19  22
ENDBRANCH  17  18
ENDBRANCH   4  17
TORSDOF 6
ENDMDL
MODEL 8
REMARK VINA RESULT:    -7.276      1.829      2.612
REMARK INTER + INTRA:         -10.632
REMARK INTER:                  -9.717
REMARK INTRA:                  -0.915
REMARK UNBOUND:                -0.804
REMARK  Name = 
REMARK  7 active torsions:
REMARK  status: ('A' for Active; 'I' for Inactive)
REMARK    1  A    between atoms: C_1  and  C_2
REMARK    2  A    between atoms: C_5  and  C_6
REMARK    3  A    between atoms: C_6  and  N_7
REMARK    4  A    between atoms: N_7  and  C_8
REMARK    5  A    between atoms: C_11  and  C_12
REMARK    6  A    between atoms: C_12  and  N_13
REMARK    7  A    between atoms: C_14  and  C_16
REMARK                            x       y       z     vdW  Elec       q    Type
REMARK                         _______ _______ _______ _____ _____    ______ ____
ROOT
ATOM      1  C   UNL     1      45.237   5.558  11.656  0.00  0.00    +0.000 A 
ATOM      2  C   UNL     1      45.614   6.874  11.353  0.00  0.00    +0.000 A 
ATOM      3  C   UNL     1      46.666   7.507  12.033  0.00  0.00    +0.000 A 
ATOM      4  C   UNL     1      47.353   6.842  13.055  0.00  0.00    +0.000 A 
ATOM      5  C   UNL     1      46.916   5.570  13.428  0.00  0.00    +0.000 A 
ATOM      6  C   UNL     1      45.866   4.946  12.745  0.00  0.00    +0.000 A 
ENDROOT
BRANCH   1   7
ATOM      7  N   UNL     1      44.167   4.966  10.956  0.00  0.00    +0.000 N 
ATOM      8  H   UNL     1      43.972   5.480  10.098  0.00  0.00    +0.000 HD
BRANCH   7   9
ATOM      9  C   UNL     1      44.269   3.528  10.699  0.00  0.00    +0.000 C 
BRANCH   9  14
ATOM     10  C   UNL     1      47.210   2.746   5.806  0.00  0.00    +0.000 C 
ATOM     11  C   UNL     1      46.446   2.888   7.087  0.00  0.00    +0.000 A 
ATOM     12  C   UNL     1      46.174   1.783   7.887  0.00  0.00    +0.000 A 
ATOM     13  C   UNL     1      45.448   1.965   9.064  0.00  0.00    +0.000 A 
ATOM     14  C   UNL     1      44.994   3.238   9.412  0.00  0.00    +0.000 A 
ATOM     15  C   UNL     1      45.339   4.283   8.561  0.00  0.00    +0.000 A 
ATOM     16  N   UNL     1      46.042   4.137   7.415  0.00  0.00    +0.000 NA
ENDBRANCH   9  14
ENDBRANCH   7   9
ENDBRANCH   1   7
BRANCH   4  17
ATOM     17  C   UNL     1      48.513   7.479  13.773  0.00  0.00    +0.000 C 
BRANCH  17  18
ATOM     18  N   UNL     1      48.980   6.661  14.861  0.00  0.00    +0.000 N 
ATOM     19  C   UNL     1      48.913   7.110  16.155  0.00  0.00    +0.000 C 
ATOM     20  O   UNL     1      48.426   8.201  16.440  0.00  0.00    +0.000 OA
ATOM     21  H   UNL     1      49.594   5.885  14.630  0.00  0.00    +0.000 HD
BRANCH  19  22
ATOM     22  C   UNL     1      49.389   6.191  17.195  0.00  0.00    +0.000 A 
ATOM     23  C   UNL     1      48.492   5.684  18.126  0.00  0.00    +0.000 A 
ATOM     24  S   UNL     1      49.191   4.573  19.214  0.00  0.00    +0.000 S 
ATOM     25  C   UNL     1      50.729   4.774  18.515  0.00  0.00    +0.000 A 
ATOM     26  N   UNL     1      51.810   4.104  18.999  0.00  0.00    +0.000 NA
ATOM     27  C   UNL     1      52.920   4.381  18.398  0.00  0.00    +0.000 A 
ATOM     28  N   UNL     1      53.048   5.264  17.359  0.00  0.00    +0.000 N 
ATOM     29  C   UNL     1      51.980   5.944  16.821  0.00  0.00    +0.000 A 
ATOM     30  O   UNL     1      52.122   6.706  15.871  0.00  0.00    +0.000 OA
ATOM     31  C   UNL     1      50.708   5.670  17.462  0.00  0.00    +0.000 A 
ATOM     32  H   UNL     1      53.946   5.434  16.931  0.00  0.00    +0.000 HD
ENDBRANCH  19  22
ENDBRANCH  17  18
ENDBRANCH   4  17
TORSDOF 6
ENDMDL
MODEL 9
REMARK VINA RESULT:    -7.105      2.932      8.157
REMARK INTER + INTRA:         -10.401
REMARK INTER:                  -9.067
REMARK INTRA:                  -1.334
REMARK UNBOUND:                -0.804
REMARK  Name = 
REMARK  7 active torsions:
REMARK  status: ('A' for Active; 'I' for Inactive)
REMARK    1  A    between atoms: C_1  and  C_2
REMARK    2  A    between atoms: C_5  and  C_6
REMARK    3  A    between atoms: C_6  and  N_7
REMARK    4  A    between atoms: N_7  and  C_8
REMARK    5  A    between atoms: C_11  and  C_12
REMARK    6  A    between atoms: C_12  and  N_13
REMARK    7  A    between atoms: C_14  and  C_16
REMARK                            x       y       z     vdW  Elec       q    Type
REMARK                         _______ _______ _______ _____ _____    ______ ____
ROOT
ATOM      1  C   UNL     1      49.548   8.302  15.660  0.00  0.00    +0.000 A 
ATOM      2  C   UNL     1      48.255   8.801  15.442  0.00  0.00    +0.000 A 
ATOM      3  C   UNL     1      47.635   8.699  14.188  0.00  0.00    +0.000 A 
ATOM      4  C   UNL     1      48.307   8.112  13.109  0.00  0.00    +0.000 A 
ATOM      5  C   UNL     1      49.629   7.705  13.295  0.00  0.00    +0.000 A 
ATOM      6  C   UNL     1      50.240   7.811  14.549  0.00  0.00    +0.000 A 
ENDROOT
BRANCH   1   7
ATOM      7  N   UNL     1      50.136   8.437  16.933  0.00  0.00    +0.000 N 
ATOM      8  H   UNL     1      50.189   9.419  17.202  0.00  0.00    +0.000 HD
BRANCH   7   9
ATOM      9  C   UNL     1      49.564   7.625  18.009  0.00  0.00    +0.000 C 
BRANCH   9  14
ATOM     10  C   UNL     1      50.325   1.987  17.090  0.00  0.00    +0.000 C 
ATOM     11  C   UNL     1      50.067   3.444  17.327  0.00  0.00    +0.000 A 
ATOM     12  C   UNL     1      48.771   3.926  17.482  0.00  0.00    +0.000 A 
ATOM     13  C   UNL     1      48.581   5.293  17.688  0.00  0.00    +0.000 A 
ATOM     14  C   UNL     1      49.681   6.151  17.720  0.00  0.00    +0.000 A 
ATOM     15  C   UNL     1      50.937   5.570  17.582  0.00  0.00    +0.000 A 
ATOM     16  N   UNL     1      51.152   4.250  17.382  0.00  0.00    +0.000 NA
ENDBRANCH   9  14
ENDBRANCH   7   9
ENDBRANCH   1   7
BRANCH   4  17
ATOM     17  C   UNL     1      47.652   7.948  11.764  0.00  0.00    +0.000 C 
BRANCH  17  18
ATOM     18  N   UNL     1      46.976   6.683  11.650  0.00  0.00    +0.000 N 
ATOM     19  C   UNL     1      45.607   6.612  11.693  0.00  0.00    +0.000 C 
ATOM     20  O   UNL     1      44.908   7.617  11.795  0.00  0.00    +0.000 OA
ATOM     21  H   UNL     1      47.528   5.845  11.810  0.00  0.00    +0.000 HD
BRANCH  19  22
ATOM     22  C   UNL     1      45.014   5.280  11.540  0.00  0.00    +0.000 A 
ATOM     23  C   UNL     1      44.367   4.687  12.617  0.00  0.00    +0.000 A 
ATOM     24  S   UNL     1      43.668   3.177  12.249  0.00  0.00    +0.000 S 
ATOM     25  C   UNL     1      44.253   3.234  10.653  0.00  0.00    +0.000 A 
ATOM     26  N   UNL     1      44.017   2.214   9.784  0.00  0.00    +0.000 NA
ATOM     27  C   UNL     1      44.552   2.373   8.619  0.00  0.00    +0.000 A 
ATOM     28  N   UNL     1      45.300   3.457   8.243  0.00  0.00    +0.000 N 
ATOM     29  C   UNL     1      45.544   4.522   9.078  0.00  0.00    +0.000 A 
ATOM     30  O   UNL     1      46.192   5.493   8.702  0.00  0.00    +0.000 OA
ATOM     31  C   UNL     1      44.965   4.393  10.402  0.00  0.00    +0.000 A 
ATOM     32  H   UNL     1      45.688   3.521   7.313  0.00  0.00    +0.000 HD
ENDBRANCH  19  22
ENDBRANCH  17  18
ENDBRANCH   4  17
TORSDOF 6
ENDMDL
