MODEL 1
REMARK VINA RESULT:    -7.813      0.000      0.000
REMARK INTER + INTRA:         -12.100
REMARK INTER:                 -11.010
REMARK INTRA:                  -1.090
REMARK UNBOUND:                -1.090
REMARK  Name = 
REMARK  8 active torsions:
REMARK  status: ('A' for Active; 'I' for Inactive)
REMARK    1  A    between atoms: C_1  and  C_2
REMARK    2  A    between atoms: C_2  and  C_3
REMARK    3  A    between atoms: C_2  and  C_14
REMARK    4  A    between atoms: C_3  and  O_4
REMARK    5  A    between atoms: O_4  and  C_5
REMARK    6  A    between atoms: C_8  and  C_9
REMARK    7  A    between atoms: C_20  and  O_21
REMARK    8  A    between atoms: O_21  and  C_22
REMARK                            x       y       z     vdW  Elec       q    Type
REMARK                         _______ _______ _______ _____ _____    ______ ____
ROOT
ATOM      1  C   UNL     1      42.842   4.812  13.012  0.00  0.00    +0.000 C 
ATOM      2  C   UNL     1      43.693   5.658  12.043  0.00  0.00    +0.000 C 
ENDROOT
BRANCH   2   3
ATOM      3  C   UNL     1      45.181   5.772  12.425  0.00  0.00    +0.000 A 
ATOM      4  C   UNL     1      45.756   4.845  13.317  0.00  0.00    +0.000 A 
ATOM      5  C   UNL     1      47.090   4.937  13.700  0.00  0.00    +0.000 A 
ATOM      6  C   UNL     1      47.885   5.945  13.174  0.00  0.00    +0.000 A 
ATOM      7  C   UNL     1      47.360   6.873  12.265  0.00  0.00    +0.000 A 
ATOM      8 CL   UNL     1      48.513   7.987  11.623  0.00  0.00    +0.000 Cl
ATOM      9  C   UNL     1      46.003   6.814  11.898  0.00  0.00    +0.000 A 
BRANCH   9  10
ATOM     10  O   UNL     1      45.360   7.618  10.983  0.00  0.00    +0.000 OA
BRANCH  10  11
ATOM     11  C   UNL     1      45.169   9.039  11.157  0.00  0.00    +0.000 C 
ATOM     12  C   UNL     1      45.014   9.600  12.582  0.00  0.00    +0.000 C 
ATOM     13  N   UNL     1      43.735  10.230  12.220  0.00  0.00    +0.000 NA
ATOM     14  C   UNL     1      43.712   9.508  10.943  0.00  0.00    +0.000 C 
ATOM     15  H   UNL     1      43.780  11.243  12.120  0.00  0.00    +0.000 HD
ENDBRANCH  10  11
ENDBRANCH   9  10
ENDBRANCH   2   3
BRANCH   2  16
ATOM     16  C   UNL     1      43.513   5.116  10.610  0.00  0.00    +0.000 C 
BRANCH  16  17
ATOM     17  O   UNL     1      43.745   3.697  10.579  0.00  0.00    +0.000 OA
BRANCH  17  18
ATOM     18  C   UNL     1      44.627   3.338   9.584  0.00  0.00    +0.000 A 
ATOM     19  C   UNL     1      45.146   4.354   8.799  0.00  0.00    +0.000 A 
ATOM     20  C   UNL     1      46.049   4.012   7.792  0.00  0.00    +0.000 A 
ATOM     21  C   UNL     1      46.408   2.672   7.607  0.00  0.00    +0.000 A 
ATOM     22  C   UNL     1      45.832   1.735   8.449  0.00  0.00    +0.000 A 
ATOM     23  N   UNL     1      44.950   2.036   9.426  0.00  0.00    +0.000 NA
BRANCH  21  24
ATOM     24  C   UNL     1      47.370   2.312   6.538  0.00  0.00    +0.000 C 
ATOM     25  N   UNL     1      47.425   3.077   5.409  0.00  0.00    +0.000 N 
ATOM     26  O   UNL     1      48.112   1.343   6.660  0.00  0.00    +0.000 OA
ATOM     27  H   UNL     1      46.868   3.891   5.207  0.00  0.00    +0.000 HD
ATOM     28  H   UNL     1      48.102   2.795   4.707  0.00  0.00    +0.000 HD
ENDBRANCH  21  24
ENDBRANCH  17  18
ENDBRANCH  16  17
ENDBRANCH   2  16
TORSDOF 7
ENDMDL
MODEL 2
REMARK VINA RESULT:    -6.809      2.596      3.817
REMARK INTER + INTRA:         -10.686
REMARK INTER:                 -10.367
REMARK INTRA:                  -0.318
REMARK UNBOUND:                -1.090
REMARK  Name = 
REMARK  8 active torsions:
REMARK  status: ('A' for Active; 'I' for Inactive)
REMARK    1  A    between atoms: C_1  and  C_2
REMARK    2  A    between atoms: C_2  and  C_3
REMARK    3  A    between atoms: C_2  and  C_14
REMARK    4  A    between atoms: C_3  and  O_4
REMARK    5  A    between atoms: O_4  and  C_5
REMARK    6  A    between atoms: C_8  and  C_9
REMARK    7  A    between atoms: C_20  and  O_21
REMARK    8  A    between atoms: O_21  and  C_22
REMARK                            x       y       z     vdW  Elec       q    Type
REMARK                         _______ _______ _______ _____ _____    ______ ____
ROOT
ATOM      1  C   UNL     1      45.798   3.321  12.727  0.00  0.00    +0.000 C 
ATOM      2  C   UNL     1      45.445   4.818  12.615  0.00  0.00    +0.000 C 
ENDROOT
BRANCH   2   3
ATOM      3  C   UNL     1      46.652   5.772  12.692  0.00  0.00    +0.000 A 
ATOM      4  C   UNL     1      47.055   6.498  11.553  0.00  0.00    +0.000 A 
ATOM      5  C   UNL     1      48.155   7.347  11.585  0.00  0.00    +0.000 A 
ATOM      6  C   UNL     1      48.860   7.511  12.769  0.00  0.00    +0.000 A 
ATOM      7  C   UNL     1      48.479   6.826  13.932  0.00  0.00    +0.000 A 
ATOM      8 CL   UNL     1      49.392   7.233  15.340  0.00  0.00    +0.000 Cl
ATOM      9  C   UNL     1      47.390   5.936  13.903  0.00  0.00    +0.000 A 
BRANCH   9  10
ATOM     10  O   UNL     1      46.869   5.236  14.970  0.00  0.00    +0.000 OA
BRANCH  10  11
ATOM     11  C   UNL     1      47.669   4.479  15.902  0.00  0.00    +0.000 C 
ATOM     12  C   UNL     1      47.007   3.341  16.699  0.00  0.00    +0.000 C 
ATOM     13  N   UNL     1      47.442   3.944  17.968  0.00  0.00    +0.000 NA
ATOM     14  C   UNL     1      47.856   5.168  17.273  0.00  0.00    +0.000 C 
ATOM     15  H   UNL     1      48.207   3.450  18.426  0.00  0.00    +0.000 HD
ENDBRANCH  10  11
ENDBRANCH   9  10
ENDBRANCH   2   3
BRANCH   2  16
ATOM     16  C   UNL     1      44.620   5.046  11.331  0.00  0.00    +0.000 C 
BRANCH  16  17
ATOM     17  O   UNL     1      44.188   3.789  10.785  0.00  0.00    +0.000 OA
BRANCH  17  18
ATOM     18  C   UNL     1      44.936   3.415   9.690  0.00  0.00    +0.000 A 
ATOM     19  C   UNL     1      45.423   4.426   8.879  0.00  0.00    +0.000 A 
ATOM     20  C   UNL     1      46.192   4.069   7.772  0.00  0.00    +0.000 A 
ATOM     21  C   UNL     1      46.453   2.718   7.514  0.00  0.00    +0.000 A 
ATOM     22  C   UNL     1      45.920   1.787   8.390  0.00  0.00    +0.000 A 
ATOM     23  N   UNL     1      45.167   2.104   9.465  0.00  0.00    +0.000 NA
BRANCH  21  24
ATOM     24  C   UNL     1      47.273   2.341   6.337  0.00  0.00    +0.000 C 
ATOM     25  N   UNL     1      47.240   3.132   5.225  0.00  0.00    +0.000 N 
ATOM     26  O   UNL     1      47.975   1.336   6.355  0.00  0.00    +0.000 OA
ATOM     27  H   UNL     1      46.704   3.976   5.103  0.00  0.00    +0.000 HD
ATOM     28  H   UNL     1      47.820   2.838   4.446  0.00  0.00    +0.000 HD
ENDBRANCH  21  24
ENDBRANCH  17  18
ENDBRANCH  16  17
ENDBRANCH   2  16
TORSDOF 7
ENDMDL
MODEL 3
REMARK VINA RESULT:    -6.483      4.685      7.105
REMARK INTER + INTRA:         -10.226
REMARK INTER:                  -8.741
REMARK INTRA:                  -1.486
REMARK UNBOUND:                -1.090
REMARK  Name = 
REMARK  8 active torsions:
REMARK  status: ('A' for Active; 'I' for Inactive)
REMARK    1  A    between atoms: C_1  and  C_2
REMARK    2  A    between atoms: C_2  and  C_3
REMARK    3  A    between atoms: C_2  and  C_14
REMARK    4  A    between atoms: C_3  and  O_4
REMARK    5  A    between atoms: O_4  and  C_5
REMARK    6  A    between atoms: C_8  and  C_9
REMARK    7  A    between atoms: C_20  and  O_21
REMARK    8  A    between atoms: O_21  and  C_22
REMARK                            x       y       z     vdW  Elec       q    Type
REMARK                         _______ _______ _______ _____ _____    ______ ____
ROOT
ATOM      1  C   UNL     1      50.850   7.634  15.198  0.00  0.00    +0.000 C 
ATOM      2  C   UNL     1      49.573   6.896  15.652  0.00  0.00    +0.000 C 
ENDROOT
BRANCH   2   3
ATOM      3  C   UNL     1      48.885   7.500  16.890  0.00  0.00    +0.000 A 
ATOM      4  C   UNL     1      48.347   8.801  16.837  0.00  0.00    +0.000 A 
ATOM      5  C   UNL     1      47.742   9.382  17.946  0.00  0.00    +0.000 A 
ATOM      6  C   UNL     1      47.638   8.660  19.126  0.00  0.00    +0.000 A 
ATOM      7  C   UNL     1      48.139   7.354  19.215  0.00  0.00    +0.000 A 
ATOM      8 CL   UNL     1      47.824   6.562  20.717  0.00  0.00    +0.000 Cl
ATOM      9  C   UNL     1      48.786   6.768  18.112  0.00  0.00    +0.000 A 
BRANCH   9  10
ATOM     10  O   UNL     1      49.280   5.484  18.032  0.00  0.00    +0.000 OA
BRANCH  10  11
ATOM     11  C   UNL     1      48.455   4.301  18.094  0.00  0.00    +0.000 C 
ATOM     12  C   UNL     1      48.601   3.234  16.994  0.00  0.00    +0.000 C 
ATOM     13  N   UNL     1      47.163   3.312  16.696  0.00  0.00    +0.000 NA
ATOM     14  C   UNL     1      47.026   4.503  17.542  0.00  0.00    +0.000 C 
ATOM     15  H   UNL     1      46.623   2.511  17.020  0.00  0.00    +0.000 HD
ENDBRANCH  10  11
ENDBRANCH   9  10
ENDBRANCH   2   3
BRANCH   2  16
ATOM     16  C   UNL     1      48.603   6.789  14.457  0.00  0.00    +0.000 C 
BRANCH  16  17
ATOM     17  O   UNL     1      47.971   5.498  14.441  0.00  0.00    +0.000 OA
BRANCH  17  18
ATOM     18  C   UNL     1      46.814   5.496  13.692  0.00  0.00    +0.000 A 
ATOM     19  C   UNL     1      46.611   6.567  12.837  0.00  0.00    +0.000 A 
ATOM     20  C   UNL     1      45.452   6.579  12.062  0.00  0.00    +0.000 A 
ATOM     21  C   UNL     1      44.538   5.523  12.161  0.00  0.00    +0.000 A 
ATOM     22  C   UNL     1      44.839   4.500  13.046  0.00  0.00    +0.000 A 
ATOM     23  N   UNL     1      45.950   4.466  13.814  0.00  0.00    +0.000 NA
BRANCH  21  24
ATOM     24  C   UNL     1      43.307   5.537  11.335  0.00  0.00    +0.000 C 
ATOM     25  N   UNL     1      42.213   6.215  11.788  0.00  0.00    +0.000 N 
ATOM     26  O   UNL     1      43.266   4.954  10.257  0.00  0.00    +0.000 OA
ATOM     27  H   UNL     1      42.137   6.728  12.650  0.00  0.00    +0.000 HD
ATOM     28  H   UNL     1      41.394   6.201  11.186  0.00  0.00    +0.000 HD
ENDBRANCH  21  24
ENDBRANCH  17  18
ENDBRANCH  16  17
ENDBRANCH   2  16
TORSDOF 7
ENDMDL
MODEL 4
REMARK VINA RESULT:    -6.236      5.622      7.495
REMARK INTER + INTRA:          -9.878
REMARK INTER:                  -8.994
REMARK INTRA:                  -0.883
REMARK UNBOUND:                -1.090
REMARK  Name = 
REMARK  8 active torsions:
REMARK  status: ('A' for Active; 'I' for Inactive)
REMARK    1  A    between atoms: C_1  and  C_2
REMARK    2  A    between atoms: C_2  and  C_3
REMARK    3  A    between atoms: C_2  and  C_14
REMARK    4  A    between atoms: C_3  and  O_4
REMARK    5  A    between atoms: O_4  and  C_5
REMARK    6  A    between atoms: C_8  and  C_9
REMARK    7  A    between atoms: C_20  and  O_21
REMARK    8  A    between atoms: O_21  and  C_22
REMARK                            x       y       z     vdW  Elec       q    Type
REMARK                         _______ _______ _______ _____ _____    ______ ____
ROOT
ATOM      1  C   UNL     1      47.037   2.749  17.501  0.00  0.00    +0.000 C 
ATOM      2  C   UNL     1      47.975   3.970  17.407  0.00  0.00    +0.000 C 
ENDROOT
BRANCH   2   3
ATOM      3  C   UNL     1      49.459   3.665  17.686  0.00  0.00    +0.000 A 
ATOM      4  C   UNL     1      50.062   2.517  17.131  0.00  0.00    +0.000 A 
ATOM      5  C   UNL     1      51.392   2.202  17.385  0.00  0.00    +0.000 A 
ATOM      6  C   UNL     1      52.157   3.046  18.178  0.00  0.00    +0.000 A 
ATOM      7  C   UNL     1      51.603   4.209  18.730  0.00  0.00    +0.000 A 
ATOM      8 CL   UNL     1      52.722   5.201  19.594  0.00  0.00    +0.000 Cl
ATOM      9  C   UNL     1      50.248   4.521  18.511  0.00  0.00    +0.000 A 
BRANCH   9  10
ATOM     10  O   UNL     1      49.581   5.647  18.941  0.00  0.00    +0.000 OA
BRANCH  10  11
ATOM     11  C   UNL     1      49.127   5.843  20.298  0.00  0.00    +0.000 C 
ATOM     12  C   UNL     1      48.995   4.620  21.222  0.00  0.00    +0.000 C 
ATOM     13  N   UNL     1      47.589   4.950  21.497  0.00  0.00    +0.000 NA
ATOM     14  C   UNL     1      47.593   5.963  20.436  0.00  0.00    +0.000 C 
ATOM     15  H   UNL     1      47.421   5.329  22.429  0.00  0.00    +0.000 HD
ENDBRANCH  10  11
ENDBRANCH   9  10
ENDBRANCH   2   3
BRANCH   2  16
ATOM     16  C   UNL     1      47.781   4.648  16.034  0.00  0.00    +0.000 C 
BRANCH  16  17
ATOM     17  O   UNL     1      47.720   3.660  14.992  0.00  0.00    +0.000 OA
BRANCH  17  18
ATOM     18  C   UNL     1      46.857   4.024  13.982  0.00  0.00    +0.000 A 
ATOM     19  C   UNL     1      46.741   5.377  13.704  0.00  0.00    +0.000 A 
ATOM     20  C   UNL     1      45.880   5.766  12.678  0.00  0.00    +0.000 A 
ATOM     21  C   UNL     1      45.170   4.796  11.962  0.00  0.00    +0.000 A 
ATOM     22  C   UNL     1      45.361   3.471  12.319  0.00  0.00    +0.000 A 
ATOM     23  N   UNL     1      46.182   3.066  13.312  0.00  0.00    +0.000 NA
BRANCH  21  24
ATOM     24  C   UNL     1      44.257   5.212  10.869  0.00  0.00    +0.000 C 
ATOM     25  N   UNL     1      44.610   4.953   9.576  0.00  0.00    +0.000 N 
ATOM     26  O   UNL     1      43.198   5.779  11.116  0.00  0.00    +0.000 OA
ATOM     27  H   UNL     1      45.448   4.494   9.261  0.00  0.00    +0.000 HD
ATOM     28  H   UNL     1      43.952   5.252   8.863  0.00  0.00    +0.000 HD
ENDBRANCH  21  24
ENDBRANCH  17  18
ENDBRANCH  16  17
ENDBRANCH   2  16
TORSDOF 7
ENDMDL
MODEL 5
REMARK VINA RESULT:    -6.040      4.961      6.924
REMARK INTER + INTRA:          -9.602
REMARK INTER:                  -8.635
REMARK INTRA:                  -0.967
REMARK UNBOUND:                -1.090
REMARK  Name = 
REMARK  8 active torsions:
REMARK  status: ('A' for Active; 'I' for Inactive)
REMARK    1  A    between atoms: C_1  and  C_2
REMARK    2  A    between atoms: C_2  and  C_3
REMARK    3  A    between atoms: C_2  and  C_14
REMARK    4  A    between atoms: C_3  and  O_4
REMARK    5  A    between atoms: O_4  and  C_5
REMARK    6  A    between atoms: C_8  and  C_9
REMARK    7  A    between atoms: C_20  and  O_21
REMARK    8  A    between atoms: O_21  and  C_22
REMARK                            x       y       z     vdW  Elec       q    Type
REMARK                         _______ _______ _______ _____ _____    ______ ____
ROOT
ATOM      1  C   UNL     1      46.958   2.934  17.518  0.00  0.00    +0.000 C 
ATOM      2  C   UNL     1      48.049   3.993  17.259  0.00  0.00    +0.000 C 
ENDROOT
BRANCH   2   3
ATOM      3  C   UNL     1      49.492   3.496  17.464  0.00  0.00    +0.000 A 
ATOM      4  C   UNL     1      49.863   2.205  17.037  0.00  0.00    +0.000 A 
ATOM      5  C   UNL     1      51.151   1.718  17.230  0.00  0.00    +0.000 A 
ATOM      6  C   UNL     1      52.105   2.527  17.831  0.00  0.00    +0.000 A 
ATOM      7  C   UNL     1      51.785   3.826  18.249  0.00  0.00    +0.000 A 
ATOM      8 CL   UNL     1      53.117   4.732  18.871  0.00  0.00    +0.000 Cl
ATOM      9  C   UNL     1      50.476   4.316  18.093  0.00  0.00    +0.000 A 
BRANCH   9  10
ATOM     10  O   UNL     1      50.026   5.581  18.405  0.00  0.00    +0.000 OA
BRANCH  10  11
ATOM     11  C   UNL     1      50.496   6.783  17.758  0.00  0.00    +0.000 C 
ATOM     12  C   UNL     1      49.465   7.756  17.159  0.00  0.00    +0.000 C 
ATOM     13  N   UNL     1      50.127   7.686  15.847  0.00  0.00    +0.000 NA
ATOM     14  C   UNL     1      50.963   6.570  16.300  0.00  0.00    +0.000 C 
ATOM     15  H   UNL     1      50.654   8.522  15.598  0.00  0.00    +0.000 HD
ENDBRANCH  10  11
ENDBRANCH   9  10
ENDBRANCH   2   3
BRANCH   2  16
ATOM     16  C   UNL     1      47.847   4.590  15.850  0.00  0.00    +0.000 C 
BRANCH  16  17
ATOM     17  O   UNL     1      47.532   3.551  14.908  0.00  0.00    +0.000 OA
BRANCH  17  18
ATOM     18  C   UNL     1      46.643   3.976  13.945  0.00  0.00    +0.000 A 
ATOM     19  C   UNL     1      46.406   5.338  13.858  0.00  0.00    +0.000 A 
ATOM     20  C   UNL     1      45.516   5.789  12.883  0.00  0.00    +0.000 A 
ATOM     21  C   UNL     1      44.899   4.871  12.027  0.00  0.00    +0.000 A 
ATOM     22  C   UNL     1      45.208   3.531  12.198  0.00  0.00    +0.000 A 
ATOM     23  N   UNL     1      46.059   3.065  13.138  0.00  0.00    +0.000 NA
BRANCH  21  24
ATOM     24  C   UNL     1      43.955   5.354  10.990  0.00  0.00    +0.000 C 
ATOM     25  N   UNL     1      43.857   4.669   9.813  0.00  0.00    +0.000 N 
ATOM     26  O   UNL     1      43.267   6.351  11.181  0.00  0.00    +0.000 OA
ATOM     27  H   UNL     1      44.368   3.842   9.553  0.00  0.00    +0.000 HD
ATOM     28  H   UNL     1      43.195   5.034   9.135  0.00  0.00    +0.000 HD
ENDBRANCH  21  24
ENDBRANCH  17  18
ENDBRANCH  16  17
ENDBRANCH   2  16
TORSDOF 7
ENDMDL
MODEL 6
REMARK VINA RESULT:    -5.786      3.784      6.038
REMARK INTER + INTRA:          -9.245
REMARK INTER:                  -8.728
REMARK INTRA:                  -0.517
REMARK UNBOUND:                -1.090
REMARK  Name = 
REMARK  8 active torsions:
REMARK  status: ('A' for Active; 'I' for Inactive)
REMARK    1  A    between atoms: C_1  and  C_2
REMARK    2  A    between atoms: C_2  and  C_3
REMARK    3  A    between atoms: C_2  and  C_14
REMARK    4  A    between atoms: C_3  and  O_4
REMARK    5  A    between atoms: O_4  and  C_5
REMARK    6  A    between atoms: C_8  and  C_9
REMARK    7  A    between atoms: C_20  and  O_21
REMARK    8  A    between atoms: O_21  and  C_22
REMARK                            x       y       z     vdW  Elec       q    Type
REMARK                         _______ _______ _______ _____ _____    ______ ____
ROOT
ATOM      1  C   UNL     1      49.286   7.334  12.083  0.00  0.00    +0.000 C 
ATOM      2  C   UNL     1      48.799   6.893  13.478  0.00  0.00    +0.000 C 
ENDROOT
BRANCH   2   3
ATOM      3  C   UNL     1      49.718   7.306  14.643  0.00  0.00    +0.000 A 
ATOM      4  C   UNL     1      50.834   8.134  14.404  0.00  0.00    +0.000 A 
ATOM      5  C   UNL     1      51.697   8.503  15.430  0.00  0.00    +0.000 A 
ATOM      6  C   UNL     1      51.444   8.075  16.725  0.00  0.00    +0.000 A 
ATOM      7  C   UNL     1      50.332   7.271  17.010  0.00  0.00    +0.000 A 
ATOM      8 CL   UNL     1      50.103   6.925  18.687  0.00  0.00    +0.000 Cl
ATOM      9  C   UNL     1      49.472   6.859  15.976  0.00  0.00    +0.000 A 
BRANCH   9  10
ATOM     10  O   UNL     1      48.319   6.117  16.108  0.00  0.00    +0.000 OA
BRANCH  10  11
ATOM     11  C   UNL     1      48.280   4.785  16.663  0.00  0.00    +0.000 C 
ATOM     12  C   UNL     1      47.362   3.734  16.013  0.00  0.00    +0.000 C 
ATOM     13  N   UNL     1      46.698   3.483  17.302  0.00  0.00    +0.000 NA
ATOM     14  C   UNL     1      47.363   4.646  17.899  0.00  0.00    +0.000 C 
ATOM     15  H   UNL     1      46.949   2.596  17.737  0.00  0.00    +0.000 HD
ENDBRANCH  10  11
ENDBRANCH   9  10
ENDBRANCH   2   3
BRANCH   2  16
ATOM     16  C   UNL     1      47.354   7.393  13.688  0.00  0.00    +0.000 C 
BRANCH  16  17
ATOM     17  O   UNL     1      46.679   7.515  12.425  0.00  0.00    +0.000 OA
BRANCH  17  18
ATOM     18  C   UNL     1      45.999   6.366  12.087  0.00  0.00    +0.000 A 
ATOM     19  C   UNL     1      45.863   6.084  10.738  0.00  0.00    +0.000 A 
ATOM     20  C   UNL     1      45.187   4.920  10.374  0.00  0.00    +0.000 A 
ATOM     21  C   UNL     1      44.676   4.074  11.366  0.00  0.00    +0.000 A 
ATOM     22  C   UNL     1      44.870   4.449  12.685  0.00  0.00    +0.000 A 
ATOM     23  N   UNL     1      45.513   5.573  13.066  0.00  0.00    +0.000 NA
BRANCH  21  24
ATOM     24  C   UNL     1      43.960   2.835  10.976  0.00  0.00    +0.000 C 
ATOM     25  N   UNL     1      44.428   2.102   9.925  0.00  0.00    +0.000 N 
ATOM     26  O   UNL     1      42.962   2.467  11.587  0.00  0.00    +0.000 OA
ATOM     27  H   UNL     1      45.235   2.308   9.359  0.00  0.00    +0.000 HD
ATOM     28  H   UNL     1      43.909   1.259   9.698  0.00  0.00    +0.000 HD
ENDBRANCH  21  24
ENDBRANCH  17  18
ENDBRANCH  16  17
ENDBRANCH   2  16
TORSDOF 7
ENDMDL
MODEL 7
REMARK VINA RESULT:    -5.648      5.374      7.585
REMARK INTER + INTRA:          -9.050
REMARK INTER:                  -8.128
REMARK INTRA:                  -0.923
REMARK UNBOUND:                -1.090
REMARK  Name = 
REMARK  8 active torsions:
REMARK  status: ('A' for Active; 'I' for Inactive)
REMARK    1  A    between atoms: C_1  and  C_2
REMARK    2  A    between atoms: C_2  and  C_3
REMARK    3  A    between atoms: C_2  and  C_14
REMARK    4  A    between atoms: C_3  and  O_4
REMARK    5  A    between atoms: O_4  and  C_5
REMARK    6  A    between atoms: C_8  and  C_9
REMARK    7  A    between atoms: C_20  and  O_21
REMARK    8  A    between atoms: O_21  and  C_22
REMARK                            x       y       z     vdW  Elec       q    Type
REMARK                         _______ _______ _______ _____ _____    ______ ____
ROOT
ATOM      1  C   UNL     1      48.472   7.590  18.025  0.00  0.00    +0.000 C 
ATOM      2  C   UNL     1      49.072   6.692  16.924  0.00  0.00    +0.000 C 
ENDROOT
BRANCH   2   3
ATOM      3  C   UNL     1      48.790   5.187  17.093  0.00  0.00    +0.000 A 
ATOM      4  C   UNL     1      47.462   4.720  17.159  0.00  0.00    +0.000 A 
ATOM      5  C   UNL     1      47.175   3.371  17.337  0.00  0.00    +0.000 A 
ATOM      6  C   UNL     1      48.214   2.456  17.424  0.00  0.00    +0.000 A 
ATOM      7  C   UNL     1      49.549   2.875  17.340  0.00  0.00    +0.000 A 
ATOM      8 CL   UNL     1      50.709   1.596  17.352  0.00  0.00    +0.000 Cl
ATOM      9  C   UNL     1      49.854   4.241  17.197  0.00  0.00    +0.000 A 
BRANCH   9  10
ATOM     10  O   UNL     1      51.106   4.796  17.049  0.00  0.00    +0.000 OA
BRANCH  10  11
ATOM     11  C   UNL     1      52.014   5.034  18.145  0.00  0.00    +0.000 C 
ATOM     12  C   UNL     1      52.824   3.853  18.710  0.00  0.00    +0.000 C 
ATOM     13  N   UNL     1      52.307   4.114  20.062  0.00  0.00    +0.000 NA
ATOM     14  C   UNL     1      51.330   5.071  19.531  0.00  0.00    +0.000 C 
ATOM     15  H   UNL     1      52.987   4.529  20.698  0.00  0.00    +0.000 HD
ENDBRANCH  10  11
ENDBRANCH   9  10
ENDBRANCH   2   3
BRANCH   2  16
ATOM     16  C   UNL     1      48.608   7.207  15.545  0.00  0.00    +0.000 C 
BRANCH  16  17
ATOM     17  O   UNL     1      48.956   6.266  14.516  0.00  0.00    +0.000 OA
BRANCH  17  18
ATOM     18  C   UNL     1      47.913   6.039  13.646  0.00  0.00    +0.000 A 
ATOM     19  C   UNL     1      47.641   7.026  12.712  0.00  0.00    +0.000 A 
ATOM     20  C   UNL     1      46.595   6.811  11.815  0.00  0.00    +0.000 A 
ATOM     21  C   UNL     1      45.862   5.620  11.873  0.00  0.00    +0.000 A 
ATOM     22  C   UNL     1      46.219   4.698  12.844  0.00  0.00    +0.000 A 
ATOM     23  N   UNL     1      47.222   4.883  13.731  0.00  0.00    +0.000 NA
BRANCH  21  24
ATOM     24  C   UNL     1      44.753   5.393  10.916  0.00  0.00    +0.000 C 
ATOM     25  N   UNL     1      43.674   6.230  10.941  0.00  0.00    +0.000 N 
ATOM     26  O   UNL     1      44.797   4.472  10.108  0.00  0.00    +0.000 OA
ATOM     27  H   UNL     1      43.535   7.015  11.556  0.00  0.00    +0.000 HD
ATOM     28  H   UNL     1      42.941   6.039  10.265  0.00  0.00    +0.000 HD
ENDBRANCH  21  24
ENDBRANCH  17  18
ENDBRANCH  16  17
ENDBRANCH   2  16
TORSDOF 7
ENDMDL
MODEL 8
REMARK VINA RESULT:    -5.232      5.532      7.920
REMARK INTER + INTRA:          -8.463
REMARK INTER:                  -7.592
REMARK INTRA:                  -0.872
REMARK UNBOUND:                -1.090
REMARK  Name = 
REMARK  8 active torsions:
REMARK  status: ('A' for Active; 'I' for Inactive)
REMARK    1  A    between atoms: C_1  and  C_2
REMARK    2  A    between atoms: C_2  and  C_3
REMARK    3  A    between atoms: C_2  and  C_14
REMARK    4  A    between atoms: C_3  and  O_4
REMARK    5  A    between atoms: O_4  and  C_5
REMARK    6  A    between atoms: C_8  and  C_9
REMARK    7  A    between atoms: C_20  and  O_21
REMARK    8  A    between atoms: O_21  and  C_22
REMARK                            x       y       z     vdW  Elec       q    Type
REMARK                         _______ _______ _______ _____ _____    ______ ____
ROOT
ATOM      1  C   UNL     1      50.882   6.891  16.024  0.00  0.00    +0.000 C 
ATOM      2  C   UNL     1      49.585   6.579  16.799  0.00  0.00    +0.000 C 
ENDROOT
BRANCH   2   3
ATOM      3  C   UNL     1      48.954   7.790  17.511  0.00  0.00    +0.000 A 
ATOM      4  C   UNL     1      48.515   8.902  16.763  0.00  0.00    +0.000 A 
ATOM      5  C   UNL     1      47.965  10.020  17.380  0.00  0.00    +0.000 A 
ATOM      6  C   UNL     1      47.814  10.037  18.759  0.00  0.00    +0.000 A 
ATOM      7  C   UNL     1      48.214   8.942  19.538  0.00  0.00    +0.000 A 
ATOM      8 CL   UNL     1      47.850   9.083  21.221  0.00  0.00    +0.000 Cl
ATOM      9  C   UNL     1      48.807   7.821  18.931  0.00  0.00    +0.000 A 
BRANCH   9  10
ATOM     10  O   UNL     1      49.201   6.657  19.554  0.00  0.00    +0.000 OA
BRANCH  10  11
ATOM     11  C   UNL     1      48.292   5.603  19.937  0.00  0.00    +0.000 C 
ATOM     12  C   UNL     1      48.570   4.813  21.228  0.00  0.00    +0.000 C 
ATOM     13  N   UNL     1      48.543   3.544  20.484  0.00  0.00    +0.000 NA
ATOM     14  C   UNL     1      48.537   4.264  19.206  0.00  0.00    +0.000 C 
ATOM     15  H   UNL     1      47.708   2.981  20.645  0.00  0.00    +0.000 HD
ENDBRANCH  10  11
ENDBRANCH   9  10
ENDBRANCH   2   3
BRANCH   2  16
ATOM     16  C   UNL     1      48.583   5.892  15.847  0.00  0.00    +0.000 C 
BRANCH  16  17
ATOM     17  O   UNL     1      48.816   6.309  14.491  0.00  0.00    +0.000 OA
BRANCH  17  18
ATOM     18  C   UNL     1      47.658   6.319  13.745  0.00  0.00    +0.000 A 
ATOM     19  C   UNL     1      47.002   5.110  13.577  0.00  0.00    +0.000 A 
ATOM     20  C   UNL     1      45.822   5.101  12.834  0.00  0.00    +0.000 A 
ATOM     21  C   UNL     1      45.333   6.294  12.290  0.00  0.00    +0.000 A 
ATOM     22  C   UNL     1      46.065   7.447  12.521  0.00  0.00    +0.000 A 
ATOM     23  N   UNL     1      47.214   7.485  13.229  0.00  0.00    +0.000 NA
BRANCH  21  24
ATOM     24  C   UNL     1      44.076   6.281  11.502  0.00  0.00    +0.000 C 
ATOM     25  N   UNL     1      43.478   7.467  11.190  0.00  0.00    +0.000 N 
ATOM     26  O   UNL     1      43.578   5.224  11.131  0.00  0.00    +0.000 OA
ATOM     27  H   UNL     1      43.800   8.388  11.439  0.00  0.00    +0.000 HD
ATOM     28  H   UNL     1      42.622   7.410  10.646  0.00  0.00    +0.000 HD
ENDBRANCH  21  24
ENDBRANCH  17  18
ENDBRANCH  16  17
ENDBRANCH   2  16
TORSDOF 7
ENDMDL
MODEL 9
REMARK VINA RESULT:    -5.037      4.917      6.928
REMARK INTER + INTRA:          -8.188
REMARK INTER:                  -7.307
REMARK INTRA:                  -0.881
REMARK UNBOUND:                -1.090
REMARK  Name = 
REMARK  8 active torsions:
REMARK  status: ('A' for Active; 'I' for Inactive)
REMARK    1  A    between atoms: C_1  and  C_2
REMARK    2  A    between atoms: C_2  and  C_3
REMARK    3  A    between atoms: C_2  and  C_14
REMARK    4  A    between atoms: C_3  and  O_4
REMARK    5  A    between atoms: O_4  and  C_5
REMARK    6  A    between atoms: C_8  and  C_9
REMARK    7  A    between atoms: C_20  and  O_21
REMARK    8  A    between atoms: O_21  and  C_22
REMARK                            x       y       z     vdW  Elec       q    Type
REMARK                         _______ _______ _______ _____ _____    ______ ____
ROOT
ATOM      1  C   UNL     1      48.654   8.405  15.542  0.00  0.00    +0.000 C 
ATOM      2  C   UNL     1      49.247   7.019  15.214  0.00  0.00    +0.000 C 
ENDROOT
BRANCH   2   3
ATOM      3  C   UNL     1      49.105   5.975  16.338  0.00  0.00    +0.000 A 
ATOM      4  C   UNL     1      47.973   5.137  16.387  0.00  0.00    +0.000 A 
ATOM      5  C   UNL     1      47.805   4.203  17.404  0.00  0.00    +0.000 A 
ATOM      6  C   UNL     1      48.783   4.068  18.378  0.00  0.00    +0.000 A 
ATOM      7  C   UNL     1      49.936   4.866  18.353  0.00  0.00    +0.000 A 
ATOM      8 CL   UNL     1      51.100   4.489  19.572  0.00  0.00    +0.000 Cl
ATOM      9  C   UNL     1      50.101   5.840  17.352  0.00  0.00    +0.000 A 
BRANCH   9  10
ATOM     10  O   UNL     1      51.195   6.657  17.168  0.00  0.00    +0.000 OA
BRANCH  10  11
ATOM     11  C   UNL     1      52.475   6.189  16.692  0.00  0.00    +0.000 C 
ATOM     12  C   UNL     1      53.729   6.460  17.542  0.00  0.00    +0.000 C 
ATOM     13  N   UNL     1      54.387   7.119  16.403  0.00  0.00    +0.000 NA
ATOM     14  C   UNL     1      53.132   7.115  15.644  0.00  0.00    +0.000 C 
ATOM     15  H   UNL     1      55.131   6.571  15.974  0.00  0.00    +0.000 HD
ENDBRANCH  10  11
ENDBRANCH   9  10
ENDBRANCH   2   3
BRANCH   2  16
ATOM     16  C   UNL     1      48.640   6.514  13.888  0.00  0.00    +0.000 C 
BRANCH  16  17
ATOM     17  O   UNL     1      47.405   7.194  13.612  0.00  0.00    +0.000 OA
BRANCH  17  18
ATOM     18  C   UNL     1      46.553   6.431  12.844  0.00  0.00    +0.000 A 
ATOM     19  C   UNL     1      46.363   6.822  11.529  0.00  0.00    +0.000 A 
ATOM     20  C   UNL     1      45.512   6.056  10.732  0.00  0.00    +0.000 A 
ATOM     21  C   UNL     1      44.885   4.927  11.269  0.00  0.00    +0.000 A 
ATOM     22  C   UNL     1      45.145   4.623  12.596  0.00  0.00    +0.000 A 
ATOM     23  N   UNL     1      45.958   5.350  13.393  0.00  0.00    +0.000 NA
BRANCH  21  24
ATOM     24  C   UNL     1      43.983   4.114  10.418  0.00  0.00    +0.000 C 
ATOM     25  N   UNL     1      43.994   4.306   9.067  0.00  0.00    +0.000 N 
ATOM     26  O   UNL     1      43.237   3.276  10.914  0.00  0.00    +0.000 OA
ATOM     27  H   UNL     1      44.564   4.961   8.557  0.00  0.00    +0.000 HD
ATOM     28  H   UNL     1      43.363   3.724   8.525  0.00  0.00    +0.000 HD
ENDBRANCH  21  24
ENDBRANCH  17  18
ENDBRANCH  16  17
ENDBRANCH   2  16
TORSDOF 7
ENDMDL
