MODEL 1
REMARK VINA RESULT:    -7.347      0.000      0.000
REMARK INTER + INTRA:         -11.717
REMARK INTER:                 -10.998
REMARK INTRA:                  -0.719
REMARK UNBOUND:                -0.719
REMARK  Name = 
REMARK  10 active torsions:
REMARK  status: ('A' for Active; 'I' for Inactive)
REMARK    1  A    between atoms: C_1  and  C_2
REMARK    2  A    between atoms: C_2  and  N_3
REMARK    3  A    between atoms: N_3  and  C_4
REMARK    4  A    between atoms: C_7  and  C_8
REMARK    5  A    between atoms: C_12  and  N_13
REMARK    6  A    between atoms: N_13  and  C_14
REMARK    7  A    between atoms: C_14  and  C_15
REMARK    8  A    between atoms: C_15  and  C_16
REMARK    9  A    between atoms: C_20  and  C_21
REMARK   10  A    between atoms: C_21  and  N_22
REMARK                            x       y       z     vdW  Elec       q    Type
REMARK                         _______ _______ _______ _____ _____    ______ ____
ROOT
ATOM      1  C   UNL     1      45.209   7.364  12.052  0.00  0.00    +0.000 A 
ATOM      2  C   UNL     1      46.299   7.616  12.899  0.00  0.00    +0.000 A 
ATOM      3  C   UNL     1      46.865   6.609  13.680  0.00  0.00    +0.000 A 
ATOM      4  C   UNL     1      46.367   5.309  13.624  0.00  0.00    +0.000 A 
ATOM      5  C   UNL     1      45.308   5.025  12.746  0.00  0.00    +0.000 A 
ATOM      6  C   UNL     1      44.748   6.021  11.908  0.00  0.00    +0.000 A 
ENDROOT
BRANCH   4   7
ATOM      7  C   UNL     1      47.011   4.302  14.516  0.00  0.00    +0.000 C 
ATOM      8  N   UNL     1      47.276   4.635  15.812  0.00  0.00    +0.000 N 
ATOM      9  O   UNL     1      47.304   3.178  14.111  0.00  0.00    +0.000 OA
ATOM     10  H   UNL     1      47.060   5.518  16.244  0.00  0.00    +0.000 HD
ATOM     11  H   UNL     1      47.702   3.916  16.386  0.00  0.00    +0.000 HD
ENDBRANCH   4   7
BRANCH   1  12
ATOM     12  N   UNL     1      44.589   8.403  11.341  0.00  0.00    +0.000 N 
ATOM     13  H   UNL     1      43.624   8.118  11.172  0.00  0.00    +0.000 HD
BRANCH  12  15
ATOM     14  C   UNL     1      44.290  10.691  10.597  0.00  0.00    +0.000 C 
ATOM     15  C   UNL     1      44.706   9.792  11.751  0.00  0.00    +0.000 C 
ENDBRANCH  12  15
ENDBRANCH   1  12
BRANCH   6  16
ATOM     16  N   UNL     1      43.658   5.625  11.071  0.00  0.00    +0.000 N 
ATOM     17  H   UNL     1      42.797   5.637  11.614  0.00  0.00    +0.000 HD
BRANCH  16  18
ATOM     18  C   UNL     1      43.778   4.325  10.381  0.00  0.00    +0.000 C 
BRANCH  18  19
ATOM     19  C   UNL     1      44.104   4.504   8.888  0.00  0.00    +0.000 C 
BRANCH  19  20
ATOM     20  C   UNL     1      45.057   3.414   8.444  0.00  0.00    +0.000 A 
ATOM     21  C   UNL     1      45.078   2.171   9.092  0.00  0.00    +0.000 A 
ATOM     22  C   UNL     1      45.865   1.131   8.598  0.00  0.00    +0.000 A 
ATOM     23  C   UNL     1      46.637   1.317   7.451  0.00  0.00    +0.000 A 
ATOM     24  C   UNL     1      46.639   2.553   6.790  0.00  0.00    +0.000 A 
ATOM     25  C   UNL     1      45.849   3.595   7.301  0.00  0.00    +0.000 A 
BRANCH  24  26
ATOM     26  C   UNL     1      47.477   2.769   5.557  0.00  0.00    +0.000 C 
BRANCH  26  27
ATOM     27  N   UNL     1      48.580   1.817   5.480  0.00  0.00    +0.000 NA
ATOM     28  H   UNL     1      48.195   0.879   5.380  0.00  0.00    +0.000 HD
ATOM     29  H   UNL     1      49.093   1.828   6.360  0.00  0.00    +0.000 HD
ENDBRANCH  26  27
ENDBRANCH  24  26
ENDBRANCH  19  20
ENDBRANCH  18  19
ENDBRANCH  16  18
ENDBRANCH   6  16
TORSDOF 9
ENDMDL
MODEL 2
REMARK VINA RESULT:    -7.119      2.460      7.095
REMARK INTER + INTRA:         -11.375
REMARK INTER:                 -10.703
REMARK INTRA:                  -0.673
REMARK UNBOUND:                -0.719
REMARK  Name = 
REMARK  10 active torsions:
REMARK  status: ('A' for Active; 'I' for Inactive)
REMARK    1  A    between atoms: C_1  and  C_2
REMARK    2  A    between atoms: C_2  and  N_3
REMARK    3  A    between atoms: N_3  and  C_4
REMARK    4  A    between atoms: C_7  and  C_8
REMARK    5  A    between atoms: C_12  and  N_13
REMARK    6  A    between atoms: N_13  and  C_14
REMARK    7  A    between atoms: C_14  and  C_15
REMARK    8  A    between atoms: C_15  and  C_16
REMARK    9  A    between atoms: C_20  and  C_21
REMARK   10  A    between atoms: C_21  and  N_22
REMARK                            x       y       z     vdW  Elec       q    Type
REMARK                         _______ _______ _______ _____ _____    ______ ____
ROOT
ATOM      1  C   UNL     1      44.545   3.221   9.690  0.00  0.00    +0.000 A 
ATOM      2  C   UNL     1      44.787   1.919   9.225  0.00  0.00    +0.000 A 
ATOM      3  C   UNL     1      45.721   1.664   8.223  0.00  0.00    +0.000 A 
ATOM      4  C   UNL     1      46.459   2.705   7.664  0.00  0.00    +0.000 A 
ATOM      5  C   UNL     1      46.270   4.009   8.150  0.00  0.00    +0.000 A 
ATOM      6  C   UNL     1      45.360   4.286   9.201  0.00  0.00    +0.000 A 
ENDROOT
BRANCH   4   7
ATOM      7  C   UNL     1      47.414   2.346   6.575  0.00  0.00    +0.000 C 
ATOM      8  N   UNL     1      47.331   2.994   5.378  0.00  0.00    +0.000 N 
ATOM      9  O   UNL     1      48.277   1.484   6.736  0.00  0.00    +0.000 OA
ATOM     10  H   UNL     1      46.675   3.723   5.153  0.00  0.00    +0.000 HD
ATOM     11  H   UNL     1      48.008   2.728   4.672  0.00  0.00    +0.000 HD
ENDBRANCH   4   7
BRANCH   1  12
ATOM     12  N   UNL     1      43.538   3.478  10.633  0.00  0.00    +0.000 N 
ATOM     13  H   UNL     1      42.643   3.378  10.152  0.00  0.00    +0.000 HD
BRANCH  12  15
ATOM     14  C   UNL     1      43.469   3.957  13.008  0.00  0.00    +0.000 C 
ATOM     15  C   UNL     1      43.545   2.867  11.951  0.00  0.00    +0.000 C 
ENDBRANCH  12  15
ENDBRANCH   1  12
BRANCH   6  16
ATOM     16  N   UNL     1      45.229   5.654   9.600  0.00  0.00    +0.000 N 
ATOM     17  H   UNL     1      45.767   6.240   8.967  0.00  0.00    +0.000 HD
BRANCH  16  18
ATOM     18  C   UNL     1      45.590   5.985  10.993  0.00  0.00    +0.000 C 
BRANCH  18  19
ATOM     19  C   UNL     1      46.817   6.913  11.055  0.00  0.00    +0.000 C 
BRANCH  19  20
ATOM     20  C   UNL     1      47.481   6.782  12.410  0.00  0.00    +0.000 A 
ATOM     21  C   UNL     1      48.301   7.804  12.909  0.00  0.00    +0.000 A 
ATOM     22  C   UNL     1      48.804   7.734  14.208  0.00  0.00    +0.000 A 
ATOM     23  C   UNL     1      48.495   6.645  15.024  0.00  0.00    +0.000 A 
ATOM     24  C   UNL     1      47.683   5.607  14.545  0.00  0.00    +0.000 A 
ATOM     25  C   UNL     1      47.189   5.685  13.233  0.00  0.00    +0.000 A 
BRANCH  24  26
ATOM     26  C   UNL     1      47.350   4.422  15.413  0.00  0.00    +0.000 C 
BRANCH  26  27
ATOM     27  N   UNL     1      47.396   3.172  14.661  0.00  0.00    +0.000 NA
ATOM     28  H   UNL     1      48.343   2.798  14.709  0.00  0.00    +0.000 HD
ATOM     29  H   UNL     1      47.210   3.366  13.679  0.00  0.00    +0.000 HD
ENDBRANCH  26  27
ENDBRANCH  24  26
ENDBRANCH  19  20
ENDBRANCH  18  19
ENDBRANCH  16  18
ENDBRANCH   6  16
TORSDOF 9
ENDMDL
MODEL 3
REMARK VINA RESULT:    -6.976      1.404      1.969
REMARK INTER + INTRA:         -11.162
REMARK INTER:                 -10.258
REMARK INTRA:                  -0.904
REMARK UNBOUND:                -0.719
REMARK  Name = 
REMARK  10 active torsions:
REMARK  status: ('A' for Active; 'I' for Inactive)
REMARK    1  A    between atoms: C_1  and  C_2
REMARK    2  A    between atoms: C_2  and  N_3
REMARK    3  A    between atoms: N_3  and  C_4
REMARK    4  A    between atoms: C_7  and  C_8
REMARK    5  A    between atoms: C_12  and  N_13
REMARK    6  A    between atoms: N_13  and  C_14
REMARK    7  A    between atoms: C_14  and  C_15
REMARK    8  A    between atoms: C_15  and  C_16
REMARK    9  A    between atoms: C_20  and  C_21
REMARK   10  A    between atoms: C_21  and  N_22
REMARK                            x       y       z     vdW  Elec       q    Type
REMARK                         _______ _______ _______ _____ _____    ______ ____
ROOT
ATOM      1  C   UNL     1      44.691   7.626  11.724  0.00  0.00    +0.000 A 
ATOM      2  C   UNL     1      45.928   8.278  11.842  0.00  0.00    +0.000 A 
ATOM      3  C   UNL     1      46.953   7.761  12.632  0.00  0.00    +0.000 A 
ATOM      4  C   UNL     1      46.779   6.561  13.318  0.00  0.00    +0.000 A 
ATOM      5  C   UNL     1      45.567   5.866  13.174  0.00  0.00    +0.000 A 
ATOM      6  C   UNL     1      44.528   6.348  12.339  0.00  0.00    +0.000 A 
ENDROOT
BRANCH   4   7
ATOM      7  C   UNL     1      47.917   6.097  14.165  0.00  0.00    +0.000 C 
ATOM      8  N   UNL     1      49.026   6.884  14.275  0.00  0.00    +0.000 N 
ATOM      9  O   UNL     1      47.875   5.027  14.768  0.00  0.00    +0.000 OA
ATOM     10  H   UNL     1      49.151   7.782  13.837  0.00  0.00    +0.000 HD
ATOM     11  H   UNL     1      49.768   6.536  14.871  0.00  0.00    +0.000 HD
ENDBRANCH   4   7
BRANCH   1  12
ATOM     12  N   UNL     1      43.635   8.201  11.001  0.00  0.00    +0.000 N 
ATOM     13  H   UNL     1      42.774   7.753  11.318  0.00  0.00    +0.000 HD
BRANCH  12  15
ATOM     14  C   UNL     1      42.057   9.975  10.513  0.00  0.00    +0.000 C 
ATOM     15  C   UNL     1      43.502   9.639  10.846  0.00  0.00    +0.000 C 
ENDBRANCH  12  15
ENDBRANCH   1  12
BRANCH   6  16
ATOM     16  N   UNL     1      43.327   5.572  12.286  0.00  0.00    +0.000 N 
ATOM     17  H   UNL     1      43.315   4.921  13.068  0.00  0.00    +0.000 HD
BRANCH  16  18
ATOM     18  C   UNL     1      43.059   4.833  11.036  0.00  0.00    +0.000 C 
BRANCH  18  19
ATOM     19  C   UNL     1      43.828   3.501  10.988  0.00  0.00    +0.000 C 
BRANCH  19  20
ATOM     20  C   UNL     1      44.698   3.463   9.749  0.00  0.00    +0.000 A 
ATOM     21  C   UNL     1      45.110   4.649   9.126  0.00  0.00    +0.000 A 
ATOM     22  C   UNL     1      46.014   4.611   8.065  0.00  0.00    +0.000 A 
ATOM     23  C   UNL     1      46.519   3.390   7.614  0.00  0.00    +0.000 A 
ATOM     24  C   UNL     1      46.115   2.190   8.217  0.00  0.00    +0.000 A 
ATOM     25  C   UNL     1      45.198   2.241   9.279  0.00  0.00    +0.000 A 
BRANCH  24  26
ATOM     26  C   UNL     1      46.645   0.865   7.733  0.00  0.00    +0.000 C 
BRANCH  26  27
ATOM     27  N   UNL     1      47.781   1.035   6.833  0.00  0.00    +0.000 NA
ATOM     28  H   UNL     1      48.371   1.785   7.190  0.00  0.00    +0.000 HD
ATOM     29  H   UNL     1      47.444   1.340   5.922  0.00  0.00    +0.000 HD
ENDBRANCH  26  27
ENDBRANCH  24  26
ENDBRANCH  19  20
ENDBRANCH  18  19
ENDBRANCH  16  18
ENDBRANCH   6  16
TORSDOF 9
ENDMDL
MODEL 4
REMARK VINA RESULT:    -6.912      2.335      4.403
REMARK INTER + INTRA:         -11.066
REMARK INTER:                 -10.200
REMARK INTRA:                  -0.866
REMARK UNBOUND:                -0.719
REMARK  Name = 
REMARK  10 active torsions:
REMARK  status: ('A' for Active; 'I' for Inactive)
REMARK    1  A    between atoms: C_1  and  C_2
REMARK    2  A    between atoms: C_2  and  N_3
REMARK    3  A    between atoms: N_3  and  C_4
REMARK    4  A    between atoms: C_7  and  C_8
REMARK    5  A    between atoms: C_12  and  N_13
REMARK    6  A    between atoms: N_13  and  C_14
REMARK    7  A    between atoms: C_14  and  C_15
REMARK    8  A    between atoms: C_15  and  C_16
REMARK    9  A    between atoms: C_20  and  C_21
REMARK   10  A    between atoms: C_21  and  N_22
REMARK                            x       y       z     vdW  Elec       q    Type
REMARK                         _______ _______ _______ _____ _____    ______ ____
ROOT
ATOM      1  C   UNL     1      47.009   4.786  14.741  0.00  0.00    +0.000 A 
ATOM      2  C   UNL     1      48.000   5.749  14.983  0.00  0.00    +0.000 A 
ATOM      3  C   UNL     1      48.155   6.861  14.158  0.00  0.00    +0.000 A 
ATOM      4  C   UNL     1      47.307   7.056  13.070  0.00  0.00    +0.000 A 
ATOM      5  C   UNL     1      46.275   6.131  12.839  0.00  0.00    +0.000 A 
ATOM      6  C   UNL     1      46.069   5.018  13.692  0.00  0.00    +0.000 A 
ENDROOT
BRANCH   4   7
ATOM      7  C   UNL     1      47.563   8.257  12.222  0.00  0.00    +0.000 C 
ATOM      8  N   UNL     1      48.813   8.456  11.713  0.00  0.00    +0.000 N 
ATOM      9  O   UNL     1      46.674   9.066  11.968  0.00  0.00    +0.000 OA
ATOM     10  H   UNL     1      49.602   7.845  11.847  0.00  0.00    +0.000 HD
ATOM     11  H   UNL     1      48.939   9.276  11.132  0.00  0.00    +0.000 HD
ENDBRANCH   4   7
BRANCH   1  12
ATOM     12  N   UNL     1      46.921   3.624  15.522  0.00  0.00    +0.000 N 
ATOM     13  H   UNL     1      47.070   2.829  14.898  0.00  0.00    +0.000 HD
BRANCH  12  15
ATOM     14  C   UNL     1      48.736   2.464  16.635  0.00  0.00    +0.000 C 
ATOM     15  C   UNL     1      47.625   3.492  16.786  0.00  0.00    +0.000 C 
ENDBRANCH  12  15
ENDBRANCH   1  12
BRANCH   6  16
ATOM     16  N   UNL     1      45.004   4.127  13.347  0.00  0.00    +0.000 N 
ATOM     17  H   UNL     1      44.674   3.658  14.187  0.00  0.00    +0.000 HD
BRANCH  16  18
ATOM     18  C   UNL     1      45.283   3.117  12.306  0.00  0.00    +0.000 C 
BRANCH  18  19
ATOM     19  C   UNL     1      44.230   3.153  11.184  0.00  0.00    +0.000 C 
BRANCH  19  20
ATOM     20  C   UNL     1      44.922   3.293   9.845  0.00  0.00    +0.000 A 
ATOM     21  C   UNL     1      45.140   4.555   9.277  0.00  0.00    +0.000 A 
ATOM     22  C   UNL     1      45.890   4.684   8.108  0.00  0.00    +0.000 A 
ATOM     23  C   UNL     1      46.434   3.556   7.494  0.00  0.00    +0.000 A 
ATOM     24  C   UNL     1      46.223   2.281   8.038  0.00  0.00    +0.000 A 
ATOM     25  C   UNL     1      45.460   2.163   9.211  0.00  0.00    +0.000 A 
BRANCH  24  26
ATOM     26  C   UNL     1      46.797   1.054   7.379  0.00  0.00    +0.000 C 
BRANCH  26  27
ATOM     27  N   UNL     1      48.052   1.346   6.694  0.00  0.00    +0.000 NA
ATOM     28  H   UNL     1      48.753   0.671   6.997  0.00  0.00    +0.000 HD
ATOM     29  H   UNL     1      48.387   2.262   6.986  0.00  0.00    +0.000 HD
ENDBRANCH  26  27
ENDBRANCH  24  26
ENDBRANCH  19  20
ENDBRANCH  18  19
ENDBRANCH  16  18
ENDBRANCH   6  16
TORSDOF 9
ENDMDL
MODEL 5
REMARK VINA RESULT:    -6.874      1.524      2.051
REMARK INTER + INTRA:         -11.009
REMARK INTER:                 -10.300
REMARK INTRA:                  -0.709
REMARK UNBOUND:                -0.719
REMARK  Name = 
REMARK  10 active torsions:
REMARK  status: ('A' for Active; 'I' for Inactive)
REMARK    1  A    between atoms: C_1  and  C_2
REMARK    2  A    between atoms: C_2  and  N_3
REMARK    3  A    between atoms: N_3  and  C_4
REMARK    4  A    between atoms: C_7  and  C_8
REMARK    5  A    between atoms: C_12  and  N_13
REMARK    6  A    between atoms: N_13  and  C_14
REMARK    7  A    between atoms: C_14  and  C_15
REMARK    8  A    between atoms: C_15  and  C_16
REMARK    9  A    between atoms: C_20  and  C_21
REMARK   10  A    between atoms: C_21  and  N_22
REMARK                            x       y       z     vdW  Elec       q    Type
REMARK                         _______ _______ _______ _____ _____    ______ ____
ROOT
ATOM      1  C   UNL     1      46.226   6.322  12.460  0.00  0.00    +0.000 A 
ATOM      2  C   UNL     1      47.325   6.808  13.184  0.00  0.00    +0.000 A 
ATOM      3  C   UNL     1      47.801   6.150  14.317  0.00  0.00    +0.000 A 
ATOM      4  C   UNL     1      47.201   4.970  14.752  0.00  0.00    +0.000 A 
ATOM      5  C   UNL     1      46.132   4.439  14.013  0.00  0.00    +0.000 A 
ATOM      6  C   UNL     1      45.661   5.065  12.832  0.00  0.00    +0.000 A 
ENDROOT
BRANCH   4   7
ATOM      7  C   UNL     1      47.755   4.349  15.991  0.00  0.00    +0.000 C 
ATOM      8  N   UNL     1      46.954   3.545  16.747  0.00  0.00    +0.000 N 
ATOM      9  O   UNL     1      48.918   4.542  16.341  0.00  0.00    +0.000 OA
ATOM     10  H   UNL     1      45.997   3.311  16.537  0.00  0.00    +0.000 HD
ATOM     11  H   UNL     1      47.375   3.134  17.572  0.00  0.00    +0.000 HD
ENDBRANCH   4   7
BRANCH   1  12
ATOM     12  N   UNL     1      45.698   7.041  11.377  0.00  0.00    +0.000 N 
ATOM     13  H   UNL     1      45.650   6.398  10.584  0.00  0.00    +0.000 HD
BRANCH  12  15
ATOM     14  C   UNL     1      44.916   9.333  11.464  0.00  0.00    +0.000 C 
ATOM     15  C   UNL     1      44.511   7.868  11.508  0.00  0.00    +0.000 C 
ENDBRANCH  12  15
ENDBRANCH   1  12
BRANCH   6  16
ATOM     16  N   UNL     1      44.550   4.450  12.173  0.00  0.00    +0.000 N 
ATOM     17  H   UNL     1      43.742   4.470  12.790  0.00  0.00    +0.000 HD
BRANCH  16  18
ATOM     18  C   UNL     1      44.743   3.075  11.670  0.00  0.00    +0.000 C 
BRANCH  18  19
ATOM     19  C   UNL     1      43.977   2.838  10.356  0.00  0.00    +0.000 C 
BRANCH  19  20
ATOM     20  C   UNL     1      44.926   2.982   9.185  0.00  0.00    +0.000 A 
ATOM     21  C   UNL     1      45.218   4.243   8.648  0.00  0.00    +0.000 A 
ATOM     22  C   UNL     1      46.189   4.380   7.656  0.00  0.00    +0.000 A 
ATOM     23  C   UNL     1      46.880   3.261   7.189  0.00  0.00    +0.000 A 
ATOM     24  C   UNL     1      46.600   1.988   7.705  0.00  0.00    +0.000 A 
ATOM     25  C   UNL     1      45.615   1.862   8.698  0.00  0.00    +0.000 A 
BRANCH  24  26
ATOM     26  C   UNL     1      47.332   0.771   7.203  0.00  0.00    +0.000 C 
BRANCH  26  27
ATOM     27  N   UNL     1      46.757  -0.462   7.731  0.00  0.00    +0.000 NA
ATOM     28  H   UNL     1      47.363  -1.240   7.474  0.00  0.00    +0.000 HD
ATOM     29  H   UNL     1      45.860  -0.632   7.280  0.00  0.00    +0.000 HD
ENDBRANCH  26  27
ENDBRANCH  24  26
ENDBRANCH  19  20
ENDBRANCH  18  19
ENDBRANCH  16  18
ENDBRANCH   6  16
TORSDOF 9
ENDMDL
MODEL 6
REMARK VINA RESULT:    -6.859      2.676      7.592
REMARK INTER + INTRA:         -10.986
REMARK INTER:                 -10.244
REMARK INTRA:                  -0.742
REMARK UNBOUND:                -0.719
REMARK  Name = 
REMARK  10 active torsions:
REMARK  status: ('A' for Active; 'I' for Inactive)
REMARK    1  A    between atoms: C_1  and  C_2
REMARK    2  A    between atoms: C_2  and  N_3
REMARK    3  A    between atoms: N_3  and  C_4
REMARK    4  A    between atoms: C_7  and  C_8
REMARK    5  A    between atoms: C_12  and  N_13
REMARK    6  A    between atoms: N_13  and  C_14
REMARK    7  A    between atoms: C_14  and  C_15
REMARK    8  A    between atoms: C_15  and  C_16
REMARK    9  A    between atoms: C_20  and  C_21
REMARK   10  A    between atoms: C_21  and  N_22
REMARK                            x       y       z     vdW  Elec       q    Type
REMARK                         _______ _______ _______ _____ _____    ______ ____
ROOT
ATOM      1  C   UNL     1      44.562   3.341   9.636  0.00  0.00    +0.000 A 
ATOM      2  C   UNL     1      44.724   2.028   9.170  0.00  0.00    +0.000 A 
ATOM      3  C   UNL     1      45.625   1.719   8.152  0.00  0.00    +0.000 A 
ATOM      4  C   UNL     1      46.410   2.718   7.579  0.00  0.00    +0.000 A 
ATOM      5  C   UNL     1      46.301   4.031   8.065  0.00  0.00    +0.000 A 
ATOM      6  C   UNL     1      45.426   4.359   9.131  0.00  0.00    +0.000 A 
ENDROOT
BRANCH   4   7
ATOM      7  C   UNL     1      47.326   2.305   6.475  0.00  0.00    +0.000 C 
ATOM      8  N   UNL     1      47.348   3.034   5.323  0.00  0.00    +0.000 N 
ATOM      9  O   UNL     1      48.062   1.326   6.584  0.00  0.00    +0.000 OA
ATOM     10  H   UNL     1      46.799   3.859   5.143  0.00  0.00    +0.000 HD
ATOM     11  H   UNL     1      47.994   2.726   4.606  0.00  0.00    +0.000 HD
ENDBRANCH   4   7
BRANCH   1  12
ATOM     12  N   UNL     1      43.587   3.655  10.595  0.00  0.00    +0.000 N 
ATOM     13  H   UNL     1      42.715   3.825  10.092  0.00  0.00    +0.000 HD
BRANCH  12  15
ATOM     14  C   UNL     1      43.569   3.746  13.017  0.00  0.00    +0.000 C 
ATOM     15  C   UNL     1      43.404   2.857  11.795  0.00  0.00    +0.000 C 
ENDBRANCH  12  15
ENDBRANCH   1  12
BRANCH   6  16
ATOM     16  N   UNL     1      45.378   5.733   9.528  0.00  0.00    +0.000 N 
ATOM     17  H   UNL     1      45.538   6.323   8.716  0.00  0.00    +0.000 HD
BRANCH  16  18
ATOM     18  C   UNL     1      46.284   6.149  10.617  0.00  0.00    +0.000 C 
BRANCH  18  19
ATOM     19  C   UNL     1      45.503   6.632  11.852  0.00  0.00    +0.000 C 
BRANCH  19  20
ATOM     20  C   UNL     1      45.504   8.147  11.891  0.00  0.00    +0.000 A 
ATOM     21  C   UNL     1      46.679   8.856  12.177  0.00  0.00    +0.000 A 
ATOM     22  C   UNL     1      46.703  10.248  12.084  0.00  0.00    +0.000 A 
ATOM     23  C   UNL     1      45.557  10.947  11.703  0.00  0.00    +0.000 A 
ATOM     24  C   UNL     1      44.368  10.260  11.420  0.00  0.00    +0.000 A 
ATOM     25  C   UNL     1      44.354   8.860  11.525  0.00  0.00    +0.000 A 
BRANCH  24  26
ATOM     26  C   UNL     1      43.121  11.004  11.018  0.00  0.00    +0.000 C 
BRANCH  26  27
ATOM     27  N   UNL     1      42.165  11.089  12.117  0.00  0.00    +0.000 NA
ATOM     28  H   UNL     1      42.645  10.856  12.985  0.00  0.00    +0.000 HD
ATOM     29  H   UNL     1      41.442  10.383  11.986  0.00  0.00    +0.000 HD
ENDBRANCH  26  27
ENDBRANCH  24  26
ENDBRANCH  19  20
ENDBRANCH  18  19
ENDBRANCH  16  18
ENDBRANCH   6  16
TORSDOF 9
ENDMDL
MODEL 7
REMARK VINA RESULT:    -6.648      2.873      7.053
REMARK INTER + INTRA:         -10.670
REMARK INTER:                  -9.861
REMARK INTRA:                  -0.809
REMARK UNBOUND:                -0.719
REMARK  Name = 
REMARK  10 active torsions:
REMARK  status: ('A' for Active; 'I' for Inactive)
REMARK    1  A    between atoms: C_1  and  C_2
REMARK    2  A    between atoms: C_2  and  N_3
REMARK    3  A    between atoms: N_3  and  C_4
REMARK    4  A    between atoms: C_7  and  C_8
REMARK    5  A    between atoms: C_12  and  N_13
REMARK    6  A    between atoms: N_13  and  C_14
REMARK    7  A    between atoms: C_14  and  C_15
REMARK    8  A    between atoms: C_15  and  C_16
REMARK    9  A    between atoms: C_20  and  C_21
REMARK   10  A    between atoms: C_21  and  N_22
REMARK                            x       y       z     vdW  Elec       q    Type
REMARK                         _______ _______ _______ _____ _____    ______ ____
ROOT
ATOM      1  C   UNL     1      44.587   3.065   9.721  0.00  0.00    +0.000 A 
ATOM      2  C   UNL     1      44.904   1.784   9.242  0.00  0.00    +0.000 A 
ATOM      3  C   UNL     1      45.814   1.598   8.203  0.00  0.00    +0.000 A 
ATOM      4  C   UNL     1      46.453   2.690   7.620  0.00  0.00    +0.000 A 
ATOM      5  C   UNL     1      46.189   3.976   8.118  0.00  0.00    +0.000 A 
ATOM      6  C   UNL     1      45.303   4.186   9.204  0.00  0.00    +0.000 A 
ENDROOT
BRANCH   4   7
ATOM      7  C   UNL     1      47.389   2.402   6.494  0.00  0.00    +0.000 C 
ATOM      8  N   UNL     1      47.258   3.096   5.327  0.00  0.00    +0.000 N 
ATOM      9  O   UNL     1      48.277   1.557   6.597  0.00  0.00    +0.000 OA
ATOM     10  H   UNL     1      46.578   3.817   5.150  0.00  0.00    +0.000 HD
ATOM     11  H   UNL     1      47.923   2.877   4.595  0.00  0.00    +0.000 HD
ENDBRANCH   4   7
BRANCH   1  12
ATOM     12  N   UNL     1      43.601   3.247  10.703  0.00  0.00    +0.000 N 
ATOM     13  H   UNL     1      42.748   2.803  10.359  0.00  0.00    +0.000 HD
BRANCH  12  15
ATOM     14  C   UNL     1      43.347   4.142  12.941  0.00  0.00    +0.000 C 
ATOM     15  C   UNL     1      43.855   2.976  12.107  0.00  0.00    +0.000 C 
ENDBRANCH  12  15
ENDBRANCH   1  12
BRANCH   6  16
ATOM     16  N   UNL     1      45.089   5.541   9.612  0.00  0.00    +0.000 N 
ATOM     17  H   UNL     1      44.820   6.096   8.804  0.00  0.00    +0.000 HD
BRANCH  16  18
ATOM     18  C   UNL     1      46.200   6.214  10.315  0.00  0.00    +0.000 C 
BRANCH  18  19
ATOM     19  C   UNL     1      46.170   5.930  11.827  0.00  0.00    +0.000 C 
BRANCH  19  20
ATOM     20  C   UNL     1      47.354   6.601  12.491  0.00  0.00    +0.000 A 
ATOM     21  C   UNL     1      47.675   6.332  13.829  0.00  0.00    +0.000 A 
ATOM     22  C   UNL     1      48.838   6.854  14.394  0.00  0.00    +0.000 A 
ATOM     23  C   UNL     1      49.696   7.647  13.632  0.00  0.00    +0.000 A 
ATOM     24  C   UNL     1      49.393   7.937  12.294  0.00  0.00    +0.000 A 
ATOM     25  C   UNL     1      48.214   7.413  11.738  0.00  0.00    +0.000 A 
BRANCH  24  26
ATOM     26  C   UNL     1      50.305   8.801  11.463  0.00  0.00    +0.000 C 
BRANCH  26  27
ATOM     27  N   UNL     1      50.763   9.972  12.205  0.00  0.00    +0.000 NA
ATOM     28  H   UNL     1      51.576   9.709  12.759  0.00  0.00    +0.000 HD
ATOM     29  H   UNL     1      50.040  10.253  12.865  0.00  0.00    +0.000 HD
ENDBRANCH  26  27
ENDBRANCH  24  26
ENDBRANCH  19  20
ENDBRANCH  18  19
ENDBRANCH  16  18
ENDBRANCH   6  16
TORSDOF 9
ENDMDL
MODEL 8
REMARK VINA RESULT:    -6.490      2.237      6.471
REMARK INTER + INTRA:         -10.434
REMARK INTER:                  -9.038
REMARK INTRA:                  -1.396
REMARK UNBOUND:                -0.719
REMARK  Name = 
REMARK  10 active torsions:
REMARK  status: ('A' for Active; 'I' for Inactive)
REMARK    1  A    between atoms: C_1  and  C_2
REMARK    2  A    between atoms: C_2  and  N_3
REMARK    3  A    between atoms: N_3  and  C_4
REMARK    4  A    between atoms: C_7  and  C_8
REMARK    5  A    between atoms: C_12  and  N_13
REMARK    6  A    between atoms: N_13  and  C_14
REMARK    7  A    between atoms: C_14  and  C_15
REMARK    8  A    between atoms: C_15  and  C_16
REMARK    9  A    between atoms: C_20  and  C_21
REMARK   10  A    between atoms: C_21  and  N_22
REMARK                            x       y       z     vdW  Elec       q    Type
REMARK                         _______ _______ _______ _____ _____    ______ ____
ROOT
ATOM      1  C   UNL     1      44.674   4.604  10.856  0.00  0.00    +0.000 A 
ATOM      2  C   UNL     1      44.910   3.349  11.437  0.00  0.00    +0.000 A 
ATOM      3  C   UNL     1      45.646   3.215  12.613  0.00  0.00    +0.000 A 
ATOM      4  C   UNL     1      46.158   4.340  13.257  0.00  0.00    +0.000 A 
ATOM      5  C   UNL     1      45.891   5.610  12.720  0.00  0.00    +0.000 A 
ATOM      6  C   UNL     1      45.105   5.774  11.551  0.00  0.00    +0.000 A 
ENDROOT
BRANCH   4   7
ATOM      7  C   UNL     1      46.960   4.103  14.492  0.00  0.00    +0.000 C 
ATOM      8  N   UNL     1      47.083   5.107  15.408  0.00  0.00    +0.000 N 
ATOM      9  O   UNL     1      47.508   3.023  14.705  0.00  0.00    +0.000 OA
ATOM     10  H   UNL     1      46.660   6.018  15.336  0.00  0.00    +0.000 HD
ATOM     11  H   UNL     1      47.625   4.897  16.237  0.00  0.00    +0.000 HD
ENDBRANCH   4   7
BRANCH   1  12
ATOM     12  N   UNL     1      44.011   4.719   9.624  0.00  0.00    +0.000 N 
ATOM     13  H   UNL     1      43.915   5.716   9.427  0.00  0.00    +0.000 HD
BRANCH  12  15
ATOM     14  C   UNL     1      45.837   4.315   8.081  0.00  0.00    +0.000 C 
ATOM     15  C   UNL     1      44.411   3.947   8.460  0.00  0.00    +0.000 C 
ENDBRANCH  12  15
ENDBRANCH   1  12
BRANCH   6  16
ATOM     16  N   UNL     1      44.918   7.111  11.079  0.00  0.00    +0.000 N 
ATOM     17  H   UNL     1      45.579   7.297  10.329  0.00  0.00    +0.000 HD
BRANCH  16  18
ATOM     18  C   UNL     1      45.003   8.195  12.079  0.00  0.00    +0.000 C 
BRANCH  18  19
ATOM     19  C   UNL     1      46.210   9.113  11.819  0.00  0.00    +0.000 C 
BRANCH  19  20
ATOM     20  C   UNL     1      47.423   8.571  12.546  0.00  0.00    +0.000 A 
ATOM     21  C   UNL     1      48.498   8.019  11.836  0.00  0.00    +0.000 A 
ATOM     22  C   UNL     1      49.664   7.641  12.501  0.00  0.00    +0.000 A 
ATOM     23  C   UNL     1      49.772   7.811  13.882  0.00  0.00    +0.000 A 
ATOM     24  C   UNL     1      48.707   8.354  14.615  0.00  0.00    +0.000 A 
ATOM     25  C   UNL     1      47.536   8.723  13.935  0.00  0.00    +0.000 A 
BRANCH  24  26
ATOM     26  C   UNL     1      48.808   8.533  16.108  0.00  0.00    +0.000 C 
BRANCH  26  27
ATOM     27  N   UNL     1      48.395   7.331  16.825  0.00  0.00    +0.000 NA
ATOM     28  H   UNL     1      49.214   6.743  16.975  0.00  0.00    +0.000 HD
ATOM     29  H   UNL     1      47.757   6.794  16.239  0.00  0.00    +0.000 HD
ENDBRANCH  26  27
ENDBRANCH  24  26
ENDBRANCH  19  20
ENDBRANCH  18  19
ENDBRANCH  16  18
ENDBRANCH   6  16
TORSDOF 9
ENDMDL
MODEL 9
REMARK VINA RESULT:    -6.265      3.531      7.709
REMARK INTER + INTRA:         -10.097
REMARK INTER:                  -9.347
REMARK INTRA:                  -0.750
REMARK UNBOUND:                -0.719
REMARK  Name = 
REMARK  10 active torsions:
REMARK  status: ('A' for Active; 'I' for Inactive)
REMARK    1  A    between atoms: C_1  and  C_2
REMARK    2  A    between atoms: C_2  and  N_3
REMARK    3  A    between atoms: N_3  and  C_4
REMARK    4  A    between atoms: C_7  and  C_8
REMARK    5  A    between atoms: C_12  and  N_13
REMARK    6  A    between atoms: N_13  and  C_14
REMARK    7  A    between atoms: C_14  and  C_15
REMARK    8  A    between atoms: C_15  and  C_16
REMARK    9  A    between atoms: C_20  and  C_21
REMARK   10  A    between atoms: C_21  and  N_22
REMARK                            x       y       z     vdW  Elec       q    Type
REMARK                         _______ _______ _______ _____ _____    ______ ____
ROOT
ATOM      1  C   UNL     1      46.674   6.319  12.628  0.00  0.00    +0.000 A 
ATOM      2  C   UNL     1      46.053   6.385  11.371  0.00  0.00    +0.000 A 
ATOM      3  C   UNL     1      45.286   5.330  10.880  0.00  0.00    +0.000 A 
ATOM      4  C   UNL     1      45.099   4.178  11.642  0.00  0.00    +0.000 A 
ATOM      5  C   UNL     1      45.669   4.113  12.923  0.00  0.00    +0.000 A 
ATOM      6  C   UNL     1      46.414   5.191  13.463  0.00  0.00    +0.000 A 
ENDROOT
BRANCH   4   7
ATOM      7  C   UNL     1      44.289   3.087  11.026  0.00  0.00    +0.000 C 
ATOM      8  N   UNL     1      44.794   2.408   9.956  0.00  0.00    +0.000 N 
ATOM      9  O   UNL     1      43.182   2.782  11.465  0.00  0.00    +0.000 OA
ATOM     10  H   UNL     1      45.694   2.568   9.534  0.00  0.00    +0.000 HD
ATOM     11  H   UNL     1      44.217   1.666   9.578  0.00  0.00    +0.000 HD
ENDBRANCH   4   7
BRANCH   1  12
ATOM     12  N   UNL     1      47.518   7.348  13.072  0.00  0.00    +0.000 N 
ATOM     13  H   UNL     1      47.227   7.587  14.022  0.00  0.00    +0.000 HD
BRANCH  12  15
ATOM     14  C   UNL     1      49.613   7.403  14.292  0.00  0.00    +0.000 C 
ATOM     15  C   UNL     1      48.962   7.276  12.923  0.00  0.00    +0.000 C 
ENDBRANCH  12  15
ENDBRANCH   1  12
BRANCH   6  16
ATOM     16  N   UNL     1      46.970   5.005  14.768  0.00  0.00    +0.000 N 
ATOM     17  H   UNL     1      47.881   5.455  14.811  0.00  0.00    +0.000 HD
BRANCH  16  18
ATOM     18  C   UNL     1      47.092   3.616  15.254  0.00  0.00    +0.000 C 
BRANCH  18  19
ATOM     19  C   UNL     1      47.343   3.567  16.772  0.00  0.00    +0.000 C 
BRANCH  19  20
ATOM     20  C   UNL     1      48.828   3.690  17.043  0.00  0.00    +0.000 A 
ATOM     21  C   UNL     1      49.390   4.918  17.416  0.00  0.00    +0.000 A 
ATOM     22  C   UNL     1      50.732   4.996  17.789  0.00  0.00    +0.000 A 
ATOM     23  C   UNL     1      51.527   3.850  17.795  0.00  0.00    +0.000 A 
ATOM     24  C   UNL     1      50.990   2.611  17.418  0.00  0.00    +0.000 A 
ATOM     25  C   UNL     1      49.640   2.547  17.038  0.00  0.00    +0.000 A 
BRANCH  24  26
ATOM     26  C   UNL     1      51.841   1.368  17.412  0.00  0.00    +0.000 C 
BRANCH  26  27
ATOM     27  N   UNL     1      51.215   0.281  18.158  0.00  0.00    +0.000 NA
ATOM     28  H   UNL     1      50.397  -0.039  17.643  0.00  0.00    +0.000 HD
ATOM     29  H   UNL     1      50.875   0.640  19.048  0.00  0.00    +0.000 HD
ENDBRANCH  26  27
ENDBRANCH  24  26
ENDBRANCH  19  20
ENDBRANCH  18  19
ENDBRANCH  16  18
ENDBRANCH   6  16
TORSDOF 9
ENDMDL
