MODEL 1
REMARK VINA RESULT:    -7.955      0.000      0.000
REMARK INTER + INTRA:         -10.897
REMARK INTER:                 -10.280
REMARK INTRA:                  -0.617
REMARK UNBOUND:                -0.617
REMARK  Name = 
REMARK  5 active torsions:
REMARK  status: ('A' for Active; 'I' for Inactive)
REMARK    1  A    between atoms: C_2  and  C_4
REMARK    2  A    between atoms: C_8  and  C_9
REMARK    3  A    between atoms: C_9  and  O_10
REMARK    4  A    between atoms: O_10  and  C_11
REMARK    5  A    between atoms: C_15  and  N_16
REMARK                            x       y       z     vdW  Elec       q    Type
REMARK                         _______ _______ _______ _____ _____    ______ ____
ROOT
ATOM      1  O   UNL     1      43.976   4.240  10.847  0.00  0.00    +0.000 OA
ENDROOT
BRANCH   1   2
ATOM      2  C   UNL     1      44.964   4.450  11.767  0.00  0.00    +0.000 A 
ATOM      3  C   UNL     1      45.290   3.386  12.592  0.00  0.00    +0.000 A 
ATOM      4  N   UNL     1      46.269   3.424  13.519  0.00  0.00    +0.000 NA
ATOM      5  C   UNL     1      46.939   4.599  13.633  0.00  0.00    +0.000 A 
ATOM      6  C   UNL     1      46.689   5.757  12.890  0.00  0.00    +0.000 A 
ATOM      7  C   UNL     1      45.660   5.646  11.944  0.00  0.00    +0.000 A 
BRANCH   6   8
ATOM      8  N   UNL     1      47.402   6.932  13.041  0.00  0.00    +0.000 N 
ATOM      9  C   UNL     1      46.740   8.216  13.282  0.00  0.00    +0.000 C 
ATOM     10  C   UNL     1      47.005   9.175  12.125  0.00  0.00    +0.000 C 
ATOM     11  C   UNL     1      48.501   9.298  11.840  0.00  0.00    +0.000 C 
ATOM     12  C   UNL     1      49.126   7.923  11.614  0.00  0.00    +0.000 C 
ATOM     13  C   UNL     1      48.843   6.979  12.782  0.00  0.00    +0.000 C 
ENDBRANCH   6   8
ENDBRANCH   1   2
BRANCH   1  14
ATOM     14  C   UNL     1      44.298   4.623   9.507  0.00  0.00    +0.000 C 
BRANCH  14  19
ATOM     15  C   UNL     1      46.547   2.569   7.213  0.00  0.00    +0.000 A 
ATOM     16  C   UNL     1      46.290   1.312   7.743  0.00  0.00    +0.000 A 
ATOM     17  N   UNL     1      45.464   1.095   8.794  0.00  0.00    +0.000 NA
ATOM     18  C   UNL     1      44.847   2.180   9.316  0.00  0.00    +0.000 A 
ATOM     19  C   UNL     1      45.016   3.479   8.844  0.00  0.00    +0.000 A 
ATOM     20  C   UNL     1      45.888   3.671   7.768  0.00  0.00    +0.000 A 
BRANCH  15  22
ATOM     21  N   UNL     1      48.800   2.364   6.336  0.00  0.00    +0.000 N 
ATOM     22  C   UNL     1      47.494   2.682   6.086  0.00  0.00    +0.000 C 
ATOM     23  O   UNL     1      47.124   3.005   4.966  0.00  0.00    +0.000 OA
ATOM     24  H   UNL     1      49.412   2.332   5.530  0.00  0.00    +0.000 HD
ATOM     25  H   UNL     1      49.085   1.849   7.157  0.00  0.00    +0.000 HD
ENDBRANCH  15  22
ENDBRANCH  14  19
ENDBRANCH   1  14
TORSDOF 5
ENDMDL
MODEL 2
REMARK VINA RESULT:    -7.746      2.827      7.352
REMARK INTER + INTRA:         -10.627
REMARK INTER:                  -9.949
REMARK INTRA:                  -0.678
REMARK UNBOUND:                -0.617
REMARK  Name = 
REMARK  5 active torsions:
REMARK  status: ('A' for Active; 'I' for Inactive)
REMARK    1  A    between atoms: C_2  and  C_4
REMARK    2  A    between atoms: C_8  and  C_9
REMARK    3  A    between atoms: C_9  and  O_10
REMARK    4  A    between atoms: O_10  and  C_11
REMARK    5  A    between atoms: C_15  and  N_16
REMARK                            x       y       z     vdW  Elec       q    Type
REMARK                         _______ _______ _______ _____ _____    ______ ____
ROOT
ATOM      1  O   UNL     1      45.555   6.162  12.796  0.00  0.00    +0.000 OA
ENDROOT
BRANCH   1   2
ATOM      2  C   UNL     1      44.975   5.064  12.229  0.00  0.00    +0.000 A 
ATOM      3  C   UNL     1      44.088   4.346  13.015  0.00  0.00    +0.000 A 
ATOM      4  N   UNL     1      43.406   3.264  12.585  0.00  0.00    +0.000 NA
ATOM      5  C   UNL     1      43.644   2.876  11.306  0.00  0.00    +0.000 A 
ATOM      6  C   UNL     1      44.536   3.488  10.420  0.00  0.00    +0.000 A 
ATOM      7  C   UNL     1      45.210   4.606  10.932  0.00  0.00    +0.000 A 
BRANCH   6   8
ATOM      8  N   UNL     1      44.743   3.056   9.122  0.00  0.00    +0.000 N 
ATOM      9  C   UNL     1      44.906   1.638   8.794  0.00  0.00    +0.000 C 
ATOM     10  C   UNL     1      46.297   1.383   8.220  0.00  0.00    +0.000 C 
ATOM     11  C   UNL     1      46.596   2.324   7.055  0.00  0.00    +0.000 C 
ATOM     12  C   UNL     1      46.393   3.780   7.466  0.00  0.00    +0.000 C 
ATOM     13  C   UNL     1      44.996   4.011   8.041  0.00  0.00    +0.000 C 
ENDBRANCH   6   8
ENDBRANCH   1   2
BRANCH   1  14
ATOM     14  C   UNL     1      46.983   6.204  12.726  0.00  0.00    +0.000 C 
BRANCH  14  19
ATOM     15  C   UNL     1      47.840   4.543  16.051  0.00  0.00    +0.000 A 
ATOM     16  C   UNL     1      48.634   5.549  16.584  0.00  0.00    +0.000 A 
ATOM     17  N   UNL     1      48.922   6.702  15.936  0.00  0.00    +0.000 NA
ATOM     18  C   UNL     1      48.367   6.867  14.714  0.00  0.00    +0.000 A 
ATOM     19  C   UNL     1      47.536   5.933  14.098  0.00  0.00    +0.000 A 
ATOM     20  C   UNL     1      47.272   4.746  14.788  0.00  0.00    +0.000 A 
BRANCH  15  22
ATOM     21  N   UNL     1      48.696   2.481  16.999  0.00  0.00    +0.000 N 
ATOM     22  C   UNL     1      47.625   3.315  16.841  0.00  0.00    +0.000 C 
ATOM     23  O   UNL     1      46.549   3.071  17.370  0.00  0.00    +0.000 OA
ATOM     24  H   UNL     1      48.567   1.707  17.639  0.00  0.00    +0.000 HD
ATOM     25  H   UNL     1      49.644   2.774  16.809  0.00  0.00    +0.000 HD
ENDBRANCH  15  22
ENDBRANCH  14  19
ENDBRANCH   1  14
TORSDOF 5
ENDMDL
MODEL 3
REMARK VINA RESULT:    -7.348      2.741      7.130
REMARK INTER + INTRA:         -10.112
REMARK INTER:                  -9.307
REMARK INTRA:                  -0.804
REMARK UNBOUND:                -0.617
REMARK  Name = 
REMARK  5 active torsions:
REMARK  status: ('A' for Active; 'I' for Inactive)
REMARK    1  A    between atoms: C_2  and  C_4
REMARK    2  A    between atoms: C_8  and  C_9
REMARK    3  A    between atoms: C_9  and  O_10
REMARK    4  A    between atoms: O_10  and  C_11
REMARK    5  A    between atoms: C_15  and  N_16
REMARK                            x       y       z     vdW  Elec       q    Type
REMARK                         _______ _______ _______ _____ _____    ______ ____
ROOT
ATOM      1  O   UNL     1      45.529   6.112  13.103  0.00  0.00    +0.000 OA
ENDROOT
BRANCH   1   2
ATOM      2  C   UNL     1      44.971   5.022  12.498  0.00  0.00    +0.000 A 
ATOM      3  C   UNL     1      44.145   4.227  13.275  0.00  0.00    +0.000 A 
ATOM      4  N   UNL     1      43.490   3.142  12.812  0.00  0.00    +0.000 NA
ATOM      5  C   UNL     1      43.693   2.833  11.506  0.00  0.00    +0.000 A 
ATOM      6  C   UNL     1      44.525   3.528  10.622  0.00  0.00    +0.000 A 
ATOM      7  C   UNL     1      45.173   4.645  11.170  0.00  0.00    +0.000 A 
BRANCH   6   8
ATOM      8  N   UNL     1      44.698   3.175   9.297  0.00  0.00    +0.000 N 
ATOM      9  C   UNL     1      44.802   1.777   8.873  0.00  0.00    +0.000 C 
ATOM     10  C   UNL     1      46.174   1.508   8.263  0.00  0.00    +0.000 C 
ATOM     11  C   UNL     1      46.494   2.512   7.156  0.00  0.00    +0.000 C 
ATOM     12  C   UNL     1      46.352   3.945   7.665  0.00  0.00    +0.000 C 
ATOM     13  C   UNL     1      44.973   4.189   8.276  0.00  0.00    +0.000 C 
ENDBRANCH   6   8
ENDBRANCH   1   2
BRANCH   1  14
ATOM     14  C   UNL     1      46.632   6.698  12.408  0.00  0.00    +0.000 C 
BRANCH  14  19
ATOM     15  C   UNL     1      44.784   9.920  11.542  0.00  0.00    +0.000 A 
ATOM     16  C   UNL     1      45.842  10.807  11.679  0.00  0.00    +0.000 A 
ATOM     17  N   UNL     1      47.091  10.436  12.049  0.00  0.00    +0.000 NA
ATOM     18  C   UNL     1      47.294   9.116  12.262  0.00  0.00    +0.000 A 
ATOM     19  C   UNL     1      46.309   8.140  12.129  0.00  0.00    +0.000 A 
ATOM     20  C   UNL     1      45.026   8.559  11.761  0.00  0.00    +0.000 A 
BRANCH  15  22
ATOM     21  N   UNL     1      42.653  10.890  12.178  0.00  0.00    +0.000 N 
ATOM     22  C   UNL     1      43.459  10.450  11.165  0.00  0.00    +0.000 C 
ATOM     23  O   UNL     1      43.109  10.533   9.995  0.00  0.00    +0.000 OA
ATOM     24  H   UNL     1      41.800  11.358  11.896  0.00  0.00    +0.000 HD
ATOM     25  H   UNL     1      43.004  11.081  13.106  0.00  0.00    +0.000 HD
ENDBRANCH  15  22
ENDBRANCH  14  19
ENDBRANCH   1  14
TORSDOF 5
ENDMDL
MODEL 4
REMARK VINA RESULT:    -7.075      4.554      8.130
REMARK INTER + INTRA:          -9.760
REMARK INTER:                  -9.200
REMARK INTRA:                  -0.560
REMARK UNBOUND:                -0.617
REMARK  Name = 
REMARK  5 active torsions:
REMARK  status: ('A' for Active; 'I' for Inactive)
REMARK    1  A    between atoms: C_2  and  C_4
REMARK    2  A    between atoms: C_8  and  C_9
REMARK    3  A    between atoms: C_9  and  O_10
REMARK    4  A    between atoms: O_10  and  C_11
REMARK    5  A    between atoms: C_15  and  N_16
REMARK                            x       y       z     vdW  Elec       q    Type
REMARK                         _______ _______ _______ _____ _____    ______ ____
ROOT
ATOM      1  O   UNL     1      47.620   3.092  14.933  0.00  0.00    +0.000 OA
ENDROOT
BRANCH   1   2
ATOM      2  C   UNL     1      47.041   4.006  14.099  0.00  0.00    +0.000 A 
ATOM      3  C   UNL     1      47.271   5.343  14.376  0.00  0.00    +0.000 A 
ATOM      4  N   UNL     1      46.803   6.361  13.623  0.00  0.00    +0.000 NA
ATOM      5  C   UNL     1      46.050   6.012  12.548  0.00  0.00    +0.000 A 
ATOM      6  C   UNL     1      45.714   4.707  12.176  0.00  0.00    +0.000 A 
ATOM      7  C   UNL     1      46.234   3.699  13.002  0.00  0.00    +0.000 A 
BRANCH   6   8
ATOM      8  N   UNL     1      44.944   4.401  11.069  0.00  0.00    +0.000 N 
ATOM      9  C   UNL     1      44.211   3.137  10.959  0.00  0.00    +0.000 C 
ATOM     10  C   UNL     1      44.741   2.317   9.786  0.00  0.00    +0.000 C 
ATOM     11  C   UNL     1      44.752   3.137   8.497  0.00  0.00    +0.000 C 
ATOM     12  C   UNL     1      45.519   4.443   8.690  0.00  0.00    +0.000 C 
ATOM     13  C   UNL     1      44.975   5.244   9.872  0.00  0.00    +0.000 C 
ENDBRANCH   6   8
ENDBRANCH   1   2
BRANCH   1  14
ATOM     14  C   UNL     1      47.557   3.410  16.325  0.00  0.00    +0.000 C 
BRANCH  14  19
ATOM     15  C   UNL     1      51.087   2.547  17.480  0.00  0.00    +0.000 A 
ATOM     16  C   UNL     1      51.516   3.827  17.807  0.00  0.00    +0.000 A 
ATOM     17  N   UNL     1      50.752   4.935  17.659  0.00  0.00    +0.000 NA
ATOM     18  C   UNL     1      49.497   4.750  17.191  0.00  0.00    +0.000 A 
ATOM     19  C   UNL     1      48.961   3.508  16.857  0.00  0.00    +0.000 A 
ATOM     20  C   UNL     1      49.781   2.386  17.006  0.00  0.00    +0.000 A 
BRANCH  15  22
ATOM     21  N   UNL     1      51.499   0.236  18.093  0.00  0.00    +0.000 N 
ATOM     22  C   UNL     1      52.024   1.420  17.655  0.00  0.00    +0.000 C 
ATOM     23  O   UNL     1      53.212   1.523  17.382  0.00  0.00    +0.000 OA
ATOM     24  H   UNL     1      52.130  -0.557  18.095  0.00  0.00    +0.000 HD
ATOM     25  H   UNL     1      50.508   0.042  18.073  0.00  0.00    +0.000 HD
ENDBRANCH  15  22
ENDBRANCH  14  19
ENDBRANCH   1  14
TORSDOF 5
ENDMDL
MODEL 5
REMARK VINA RESULT:    -6.814      1.588      2.140
REMARK INTER + INTRA:          -9.423
REMARK INTER:                  -8.561
REMARK INTRA:                  -0.861
REMARK UNBOUND:                -0.617
REMARK  Name = 
REMARK  5 active torsions:
REMARK  status: ('A' for Active; 'I' for Inactive)
REMARK    1  A    between atoms: C_2  and  C_4
REMARK    2  A    between atoms: C_8  and  C_9
REMARK    3  A    between atoms: C_9  and  O_10
REMARK    4  A    between atoms: O_10  and  C_11
REMARK    5  A    between atoms: C_15  and  N_16
REMARK                            x       y       z     vdW  Elec       q    Type
REMARK                         _______ _______ _______ _____ _____    ______ ____
ROOT
ATOM      1  O   UNL     1      44.166   5.632  12.477  0.00  0.00    +0.000 OA
ENDROOT
BRANCH   1   2
ATOM      2  C   UNL     1      45.430   5.750  12.980  0.00  0.00    +0.000 A 
ATOM      3  C   UNL     1      45.875   4.731  13.807  0.00  0.00    +0.000 A 
ATOM      4  N   UNL     1      47.110   4.683  14.347  0.00  0.00    +0.000 NA
ATOM      5  C   UNL     1      47.931   5.724  14.054  0.00  0.00    +0.000 A 
ATOM      6  C   UNL     1      47.599   6.830  13.265  0.00  0.00    +0.000 A 
ATOM      7  C   UNL     1      46.300   6.813  12.735  0.00  0.00    +0.000 A 
BRANCH   6   8
ATOM      8  N   UNL     1      48.472   7.866  12.992  0.00  0.00    +0.000 N 
ATOM      9  C   UNL     1      48.833   8.236  11.621  0.00  0.00    +0.000 C 
ATOM     10  C   UNL     1      50.325   8.019  11.388  0.00  0.00    +0.000 C 
ATOM     11  C   UNL     1      51.160   8.723  12.457  0.00  0.00    +0.000 C 
ATOM     12  C   UNL     1      50.721   8.301  13.856  0.00  0.00    +0.000 C 
ATOM     13  C   UNL     1      49.223   8.523  14.065  0.00  0.00    +0.000 C 
ENDBRANCH   6   8
ENDBRANCH   1   2
BRANCH   1  14
ATOM     14  C   UNL     1      44.039   5.896  11.078  0.00  0.00    +0.000 C 
BRANCH  14  19
ATOM     15  C   UNL     1      45.456   3.372   8.595  0.00  0.00    +0.000 A 
ATOM     16  C   UNL     1      44.797   2.240   9.053  0.00  0.00    +0.000 A 
ATOM     17  N   UNL     1      43.952   2.239  10.112  0.00  0.00    +0.000 NA
ATOM     18  C   UNL     1      43.738   3.429  10.718  0.00  0.00    +0.000 A 
ATOM     19  C   UNL     1      44.329   4.627  10.324  0.00  0.00    +0.000 A 
ATOM     20  C   UNL     1      45.207   4.590   9.237  0.00  0.00    +0.000 A 
BRANCH  15  22
ATOM     21  N   UNL     1      47.087   2.075   7.353  0.00  0.00    +0.000 N 
ATOM     22  C   UNL     1      46.378   3.240   7.450  0.00  0.00    +0.000 C 
ATOM     23  O   UNL     1      46.477   4.114   6.599  0.00  0.00    +0.000 OA
ATOM     24  H   UNL     1      47.625   1.950   6.503  0.00  0.00    +0.000 HD
ATOM     25  H   UNL     1      46.840   1.245   7.873  0.00  0.00    +0.000 HD
ENDBRANCH  15  22
ENDBRANCH  14  19
ENDBRANCH   1  14
TORSDOF 5
ENDMDL
MODEL 6
REMARK VINA RESULT:    -6.807      3.644      7.791
REMARK INTER + INTRA:          -9.413
REMARK INTER:                  -8.826
REMARK INTRA:                  -0.587
REMARK UNBOUND:                -0.617
REMARK  Name = 
REMARK  5 active torsions:
REMARK  status: ('A' for Active; 'I' for Inactive)
REMARK    1  A    between atoms: C_2  and  C_4
REMARK    2  A    between atoms: C_8  and  C_9
REMARK    3  A    between atoms: C_9  and  O_10
REMARK    4  A    between atoms: O_10  and  C_11
REMARK    5  A    between atoms: C_15  and  N_16
REMARK                            x       y       z     vdW  Elec       q    Type
REMARK                         _______ _______ _______ _____ _____    ______ ____
ROOT
ATOM      1  O   UNL     1      46.331   3.578  13.947  0.00  0.00    +0.000 OA
ENDROOT
BRANCH   1   2
ATOM      2  C   UNL     1      45.417   3.805  12.957  0.00  0.00    +0.000 A 
ATOM      3  C   UNL     1      44.283   4.522  13.301  0.00  0.00    +0.000 A 
ATOM      4  N   UNL     1      43.312   4.861  12.428  0.00  0.00    +0.000 NA
ATOM      5  C   UNL     1      43.484   4.439  11.149  0.00  0.00    +0.000 A 
ATOM      6  C   UNL     1      44.560   3.682  10.676  0.00  0.00    +0.000 A 
ATOM      7  C   UNL     1      45.533   3.366  11.637  0.00  0.00    +0.000 A 
BRANCH   6   8
ATOM      8  N   UNL     1      44.693   3.277   9.361  0.00  0.00    +0.000 N 
ATOM      9  C   UNL     1      44.735   1.862   8.985  0.00  0.00    +0.000 C 
ATOM     10  C   UNL     1      46.084   1.520   8.358  0.00  0.00    +0.000 C 
ATOM     11  C   UNL     1      46.418   2.473   7.211  0.00  0.00    +0.000 C 
ATOM     12  C   UNL     1      46.340   3.926   7.671  0.00  0.00    +0.000 C 
ATOM     13  C   UNL     1      44.984   4.244   8.300  0.00  0.00    +0.000 C 
ENDBRANCH   6   8
ENDBRANCH   1   2
BRANCH   1  14
ATOM     14  C   UNL     1      46.768   4.742  14.652  0.00  0.00    +0.000 C 
BRANCH  14  19
ATOM     15  C   UNL     1      49.147   3.150  17.172  0.00  0.00    +0.000 A 
ATOM     16  C   UNL     1      48.547   3.606  18.338  0.00  0.00    +0.000 A 
ATOM     17  N   UNL     1      47.451   4.401  18.358  0.00  0.00    +0.000 NA
ATOM     18  C   UNL     1      46.917   4.729  17.159  0.00  0.00    +0.000 A 
ATOM     19  C   UNL     1      47.425   4.306  15.933  0.00  0.00    +0.000 A 
ATOM     20  C   UNL     1      48.567   3.498  15.947  0.00  0.00    +0.000 A 
BRANCH  15  22
ATOM     21  N   UNL     1      51.280   2.671  18.224  0.00  0.00    +0.000 N 
ATOM     22  C   UNL     1      50.359   2.314  17.279  0.00  0.00    +0.000 C 
ATOM     23  O   UNL     1      50.517   1.320  16.584  0.00  0.00    +0.000 OA
ATOM     24  H   UNL     1      52.046   2.025  18.365  0.00  0.00    +0.000 HD
ATOM     25  H   UNL     1      51.065   3.310  18.977  0.00  0.00    +0.000 HD
ENDBRANCH  15  22
ENDBRANCH  14  19
ENDBRANCH   1  14
TORSDOF 5
ENDMDL
MODEL 7
REMARK VINA RESULT:    -6.759      2.904      5.062
REMARK INTER + INTRA:          -9.352
REMARK INTER:                  -8.581
REMARK INTRA:                  -0.771
REMARK UNBOUND:                -0.617
REMARK  Name = 
REMARK  5 active torsions:
REMARK  status: ('A' for Active; 'I' for Inactive)
REMARK    1  A    between atoms: C_2  and  C_4
REMARK    2  A    between atoms: C_8  and  C_9
REMARK    3  A    between atoms: C_9  and  O_10
REMARK    4  A    between atoms: O_10  and  C_11
REMARK    5  A    between atoms: C_15  and  N_16
REMARK                            x       y       z     vdW  Elec       q    Type
REMARK                         _______ _______ _______ _____ _____    ______ ____
ROOT
ATOM      1  O   UNL     1      47.021   6.503  12.007  0.00  0.00    +0.000 OA
ENDROOT
BRANCH   1   2
ATOM      2  C   UNL     1      47.838   6.615  13.096  0.00  0.00    +0.000 A 
ATOM      3  C   UNL     1      48.888   7.515  13.004  0.00  0.00    +0.000 A 
ATOM      4  N   UNL     1      49.754   7.767  14.007  0.00  0.00    +0.000 NA
ATOM      5  C   UNL     1      49.564   7.063  15.153  0.00  0.00    +0.000 A 
ATOM      6  C   UNL     1      48.570   6.103  15.366  0.00  0.00    +0.000 A 
ATOM      7  C   UNL     1      47.704   5.893  14.283  0.00  0.00    +0.000 A 
BRANCH   6   8
ATOM      8  N   UNL     1      48.415   5.413  16.554  0.00  0.00    +0.000 N 
ATOM      9  C   UNL     1      49.424   5.457  17.614  0.00  0.00    +0.000 C 
ATOM     10  C   UNL     1      50.012   4.069  17.845  0.00  0.00    +0.000 C 
ATOM     11  C   UNL     1      48.913   3.035  18.084  0.00  0.00    +0.000 C 
ATOM     12  C   UNL     1      47.892   3.055  16.949  0.00  0.00    +0.000 C 
ATOM     13  C   UNL     1      47.321   4.456  16.734  0.00  0.00    +0.000 C 
ENDBRANCH   6   8
ENDBRANCH   1   2
BRANCH   1  14
ATOM     14  C   UNL     1      45.623   6.626  12.278  0.00  0.00    +0.000 C 
BRANCH  14  19
ATOM     15  C   UNL     1      44.422   3.481  10.487  0.00  0.00    +0.000 A 
ATOM     16  C   UNL     1      43.730   2.896  11.539  0.00  0.00    +0.000 A 
ATOM     17  N   UNL     1      43.648   3.437  12.777  0.00  0.00    +0.000 NA
ATOM     18  C   UNL     1      44.261   4.629  12.961  0.00  0.00    +0.000 A 
ATOM     19  C   UNL     1      44.959   5.312  11.968  0.00  0.00    +0.000 A 
ATOM     20  C   UNL     1      45.039   4.718  10.704  0.00  0.00    +0.000 A 
BRANCH  15  22
ATOM     21  N   UNL     1      44.386   3.543   8.062  0.00  0.00    +0.000 N 
ATOM     22  C   UNL     1      44.468   2.776   9.191  0.00  0.00    +0.000 C 
ATOM     23  O   UNL     1      44.615   1.564   9.123  0.00  0.00    +0.000 OA
ATOM     24  H   UNL     1      44.537   3.061   7.184  0.00  0.00    +0.000 HD
ATOM     25  H   UNL     1      44.530   4.543   8.074  0.00  0.00    +0.000 HD
ENDBRANCH  15  22
ENDBRANCH  14  19
ENDBRANCH   1  14
TORSDOF 5
ENDMDL
MODEL 8
REMARK VINA RESULT:    -6.757      2.526      6.576
REMARK INTER + INTRA:          -9.348
REMARK INTER:                  -8.513
REMARK INTRA:                  -0.835
REMARK UNBOUND:                -0.617
REMARK  Name = 
REMARK  5 active torsions:
REMARK  status: ('A' for Active; 'I' for Inactive)
REMARK    1  A    between atoms: C_2  and  C_4
REMARK    2  A    between atoms: C_8  and  C_9
REMARK    3  A    between atoms: C_9  and  O_10
REMARK    4  A    between atoms: O_10  and  C_11
REMARK    5  A    between atoms: C_15  and  N_16
REMARK                            x       y       z     vdW  Elec       q    Type
REMARK                         _______ _______ _______ _____ _____    ______ ____
ROOT
ATOM      1  O   UNL     1      45.209   6.997  12.675  0.00  0.00    +0.000 OA
ENDROOT
BRANCH   1   2
ATOM      2  C   UNL     1      44.973   5.712  12.277  0.00  0.00    +0.000 A 
ATOM      3  C   UNL     1      44.597   4.809  13.259  0.00  0.00    +0.000 A 
ATOM      4  N   UNL     1      44.291   3.518  13.018  0.00  0.00    +0.000 NA
ATOM      5  C   UNL     1      44.387   3.111  11.726  0.00  0.00    +0.000 A 
ATOM      6  C   UNL     1      44.787   3.906  10.647  0.00  0.00    +0.000 A 
ATOM      7  C   UNL     1      45.088   5.238  10.969  0.00  0.00    +0.000 A 
BRANCH   6   8
ATOM      8  N   UNL     1      44.867   3.447   9.345  0.00  0.00    +0.000 N 
ATOM      9  C   UNL     1      44.766   2.022   9.019  0.00  0.00    +0.000 C 
ATOM     10  C   UNL     1      46.069   1.528   8.397  0.00  0.00    +0.000 C 
ATOM     11  C   UNL     1      46.486   2.403   7.216  0.00  0.00    +0.000 C 
ATOM     12  C   UNL     1      46.556   3.872   7.626  0.00  0.00    +0.000 C 
ATOM     13  C   UNL     1      45.243   4.343   8.250  0.00  0.00    +0.000 C 
ENDBRANCH   6   8
ENDBRANCH   1   2
BRANCH   1  14
ATOM     14  C   UNL     1      46.039   7.764  11.800  0.00  0.00    +0.000 C 
BRANCH  14  19
ATOM     15  C   UNL     1      49.815   7.911  12.316  0.00  0.00    +0.000 A 
ATOM     16  C   UNL     1      49.826   8.179  13.678  0.00  0.00    +0.000 A 
ATOM     17  N   UNL     1      48.705   8.334  14.423  0.00  0.00    +0.000 NA
ATOM     18  C   UNL     1      47.524   8.185  13.780  0.00  0.00    +0.000 A 
ATOM     19  C   UNL     1      47.402   7.891  12.424  0.00  0.00    +0.000 A 
ATOM     20  C   UNL     1      48.578   7.754  11.681  0.00  0.00    +0.000 A 
BRANCH  15  22
ATOM     21  N   UNL     1      52.238   8.043  12.329  0.00  0.00    +0.000 N 
ATOM     22  C   UNL     1      51.104   7.796  11.606  0.00  0.00    +0.000 C 
ATOM     23  O   UNL     1      51.163   7.454  10.433  0.00  0.00    +0.000 OA
ATOM     24  H   UNL     1      53.114   7.846  11.863  0.00  0.00    +0.000 HD
ATOM     25  H   UNL     1      52.242   8.065  13.339  0.00  0.00    +0.000 HD
ENDBRANCH  15  22
ENDBRANCH  14  19
ENDBRANCH   1  14
TORSDOF 5
ENDMDL
MODEL 9
REMARK VINA RESULT:    -6.447      3.439      7.937
REMARK INTER + INTRA:          -8.949
REMARK INTER:                  -8.164
REMARK INTRA:                  -0.785
REMARK UNBOUND:                -0.617
REMARK  Name = 
REMARK  5 active torsions:
REMARK  status: ('A' for Active; 'I' for Inactive)
REMARK    1  A    between atoms: C_2  and  C_4
REMARK    2  A    between atoms: C_8  and  C_9
REMARK    3  A    between atoms: C_9  and  O_10
REMARK    4  A    between atoms: O_10  and  C_11
REMARK    5  A    between atoms: C_15  and  N_16
REMARK                            x       y       z     vdW  Elec       q    Type
REMARK                         _______ _______ _______ _____ _____    ______ ____
ROOT
ATOM      1  O   UNL     1      48.348   6.392  13.361  0.00  0.00    +0.000 OA
ENDROOT
BRANCH   1   2
ATOM      2  C   UNL     1      47.149   6.601  12.741  0.00  0.00    +0.000 A 
ATOM      3  C   UNL     1      46.565   7.845  12.907  0.00  0.00    +0.000 A 
ATOM      4  N   UNL     1      45.405   8.217  12.326  0.00  0.00    +0.000 NA
ATOM      5  C   UNL     1      44.796   7.280  11.554  0.00  0.00    +0.000 A 
ATOM      6  C   UNL     1      45.258   5.979  11.332  0.00  0.00    +0.000 A 
ATOM      7  C   UNL     1      46.469   5.661  11.965  0.00  0.00    +0.000 A 
BRANCH   6   8
ATOM      8  N   UNL     1      44.602   5.060  10.534  0.00  0.00    +0.000 N 
ATOM      9  C   UNL     1      43.476   4.265  11.032  0.00  0.00    +0.000 C 
ATOM     10  C   UNL     1      43.829   2.781  11.021  0.00  0.00    +0.000 C 
ATOM     11  C   UNL     1      44.334   2.341   9.648  0.00  0.00    +0.000 C 
ATOM     12  C   UNL     1      45.495   3.220   9.188  0.00  0.00    +0.000 C 
ATOM     13  C   UNL     1      45.120   4.702   9.212  0.00  0.00    +0.000 C 
ENDBRANCH   6   8
ENDBRANCH   1   2
BRANCH   1  14
ATOM     14  C   UNL     1      48.601   7.223  14.497  0.00  0.00    +0.000 C 
BRANCH  14  19
ATOM     15  C   UNL     1      48.528   4.548  17.213  0.00  0.00    +0.000 A 
ATOM     16  C   UNL     1      49.778   4.785  17.769  0.00  0.00    +0.000 A 
ATOM     17  N   UNL     1      50.637   5.728  17.313  0.00  0.00    +0.000 NA
ATOM     18  C   UNL     1      50.213   6.483  16.274  0.00  0.00    +0.000 A 
ATOM     19  C   UNL     1      48.971   6.344  15.660  0.00  0.00    +0.000 A 
ATOM     20  C   UNL     1      48.114   5.351  16.145  0.00  0.00    +0.000 A 
BRANCH  15  22
ATOM     21  N   UNL     1      48.136   2.879  18.930  0.00  0.00    +0.000 N 
ATOM     22  C   UNL     1      47.695   3.468  17.778  0.00  0.00    +0.000 C 
ATOM     23  O   UNL     1      46.633   3.141  17.265  0.00  0.00    +0.000 OA
ATOM     24  H   UNL     1      47.498   2.225  19.368  0.00  0.00    +0.000 HD
ATOM     25  H   UNL     1      48.849   3.293  19.512  0.00  0.00    +0.000 HD
ENDBRANCH  15  22
ENDBRANCH  14  19
ENDBRANCH   1  14
TORSDOF 5
ENDMDL
