MODEL 1
REMARK VINA RESULT:    -7.615      0.000      0.000
REMARK INTER + INTRA:          -9.742
REMARK INTER:                  -8.950
REMARK INTRA:                  -0.791
REMARK UNBOUND:                -0.791
REMARK  Name = 
REMARK  4 active torsions:
REMARK  status: ('A' for Active; 'I' for Inactive)
REMARK    1  A    between atoms: C_1  and  C_2
REMARK    2  A    between atoms: N_7  and  C_8
REMARK    3  A    between atoms: C_8  and  C_9
REMARK    4  A    between atoms: C_13  and  C_14
REMARK                            x       y       z     vdW  Elec       q    Type
REMARK                         _______ _______ _______ _____ _____    ______ ____
ROOT
ATOM      1  C   UNL     1      44.324   4.253  11.277  0.00  0.00    +0.000 C 
ATOM      2  C   UNL     1      42.878   4.216  11.771  0.00  0.00    +0.000 C 
ATOM      3  C   UNL     1      43.259   5.147  10.671  0.00  0.00    +0.000 C 
ENDROOT
BRANCH   1  10
ATOM      4  C   UNL     1      46.854   0.510   6.929  0.00  0.00    +0.000 C 
ATOM      5  C   UNL     1      46.507   1.823   7.563  0.00  0.00    +0.000 A 
ATOM      6  C   UNL     1      46.824   3.034   6.957  0.00  0.00    +0.000 A 
ATOM      7  C   UNL     1      46.444   4.202   7.597  0.00  0.00    +0.000 A 
ATOM      8  N   UNL     1      45.789   4.246   8.778  0.00  0.00    +0.000 NA
ATOM      9  C   UNL     1      45.503   3.076   9.383  0.00  0.00    +0.000 A 
ATOM     10  N   UNL     1      44.785   3.021  10.604  0.00  0.00    +0.000 N 
ATOM     11  C   UNL     1      45.840   1.852   8.792  0.00  0.00    +0.000 A 
ATOM     12  H   UNL     1      45.257   2.375  11.229  0.00  0.00    +0.000 HD
ENDBRANCH   1  10
BRANCH   1  13
ATOM     13  C   UNL     1      45.361   4.917  12.179  0.00  0.00    +0.000 A 
ATOM     14  C   UNL     1      45.931   4.234  13.263  0.00  0.00    +0.000 A 
ATOM     15  C   UNL     1      46.954   4.804  14.018  0.00  0.00    +0.000 A 
ATOM     16  C   UNL     1      47.443   6.070  13.690  0.00  0.00    +0.000 A 
ATOM     17  C   UNL     1      46.912   6.796  12.611  0.00  0.00    +0.000 A 
ATOM     18  C   UNL     1      45.841   6.214  11.909  0.00  0.00    +0.000 A 
BRANCH  17  19
ATOM     19  C   UNL     1      47.517   8.065  12.147  0.00  0.00    +0.000 A 
ATOM     20  C   UNL     1      46.775   9.261  12.162  0.00  0.00    +0.000 A 
ATOM     21  C   UNL     1      47.360  10.488  11.833  0.00  0.00    +0.000 A 
ATOM     22  C   UNL     1      48.706  10.549  11.491  0.00  0.00    +0.000 A 
ATOM     23  C   UNL     1      49.462   9.381  11.459  0.00  0.00    +0.000 A 
ATOM     24  C   UNL     1      48.871   8.153  11.776  0.00  0.00    +0.000 A 
ENDBRANCH  17  19
ENDBRANCH   1  13
TORSDOF 3
ENDMDL
MODEL 2
REMARK VINA RESULT:    -7.360      1.556      3.587
REMARK INTER + INTRA:          -9.442
REMARK INTER:                  -8.668
REMARK INTRA:                  -0.774
REMARK UNBOUND:                -0.791
REMARK  Name = 
REMARK  4 active torsions:
REMARK  status: ('A' for Active; 'I' for Inactive)
REMARK    1  A    between atoms: C_1  and  C_2
REMARK    2  A    between atoms: N_7  and  C_8
REMARK    3  A    between atoms: C_8  and  C_9
REMARK    4  A    between atoms: C_13  and  C_14
REMARK                            x       y       z     vdW  Elec       q    Type
REMARK                         _______ _______ _______ _____ _____    ______ ____
ROOT
ATOM      1  C   UNL     1      44.191   4.662  11.432  0.00  0.00    +0.000 C 
ATOM      2  C   UNL     1      42.849   4.631  12.162  0.00  0.00    +0.000 C 
ATOM      3  C   UNL     1      42.983   5.403  10.893  0.00  0.00    +0.000 C 
ENDROOT
BRANCH   1  10
ATOM      4  C   UNL     1      46.612   0.496   7.421  0.00  0.00    +0.000 C 
ATOM      5  C   UNL     1      46.291   1.867   7.933  0.00  0.00    +0.000 A 
ATOM      6  C   UNL     1      46.616   3.011   7.213  0.00  0.00    +0.000 A 
ATOM      7  C   UNL     1      46.259   4.239   7.746  0.00  0.00    +0.000 A 
ATOM      8  N   UNL     1      45.622   4.402   8.926  0.00  0.00    +0.000 NA
ATOM      9  C   UNL     1      45.329   3.298   9.642  0.00  0.00    +0.000 A 
ATOM     10  N   UNL     1      44.627   3.367  10.871  0.00  0.00    +0.000 N 
ATOM     11  C   UNL     1      45.642   2.020   9.163  0.00  0.00    +0.000 A 
ATOM     12  H   UNL     1      45.099   2.775  11.547  0.00  0.00    +0.000 HD
ENDBRANCH   1  10
BRANCH   1  13
ATOM     13  C   UNL     1      45.308   5.504  12.045  0.00  0.00    +0.000 A 
ATOM     14  C   UNL     1      45.544   6.821  11.626  0.00  0.00    +0.000 A 
ATOM     15  C   UNL     1      46.492   7.622  12.261  0.00  0.00    +0.000 A 
ATOM     16  C   UNL     1      47.212   7.123  13.348  0.00  0.00    +0.000 A 
ATOM     17  C   UNL     1      47.011   5.814  13.813  0.00  0.00    +0.000 A 
ATOM     18  C   UNL     1      46.090   5.016  13.111  0.00  0.00    +0.000 A 
BRANCH  17  19
ATOM     19  C   UNL     1      47.644   5.318  15.056  0.00  0.00    +0.000 A 
ATOM     20  C   UNL     1      48.550   6.125  15.771  0.00  0.00    +0.000 A 
ATOM     21  C   UNL     1      49.074   5.721  17.003  0.00  0.00    +0.000 A 
ATOM     22  C   UNL     1      48.696   4.502  17.555  0.00  0.00    +0.000 A 
ATOM     23  C   UNL     1      47.809   3.680  16.866  0.00  0.00    +0.000 A 
ATOM     24  C   UNL     1      47.296   4.080  15.628  0.00  0.00    +0.000 A 
ENDBRANCH  17  19
ENDBRANCH   1  13
TORSDOF 3
ENDMDL
MODEL 3
REMARK VINA RESULT:    -7.246      1.445      2.046
REMARK INTER + INTRA:          -9.309
REMARK INTER:                  -9.512
REMARK INTRA:                   0.204
REMARK UNBOUND:                -0.791
REMARK  Name = 
REMARK  4 active torsions:
REMARK  status: ('A' for Active; 'I' for Inactive)
REMARK    1  A    between atoms: C_1  and  C_2
REMARK    2  A    between atoms: N_7  and  C_8
REMARK    3  A    between atoms: C_8  and  C_9
REMARK    4  A    between atoms: C_13  and  C_14
REMARK                            x       y       z     vdW  Elec       q    Type
REMARK                         _______ _______ _______ _____ _____    ______ ____
ROOT
ATOM      1  C   UNL     1      44.489   5.570  10.891  0.00  0.00    +0.000 C 
ATOM      2  C   UNL     1      43.161   4.842  11.100  0.00  0.00    +0.000 C 
ATOM      3  C   UNL     1      43.203   6.332  11.147  0.00  0.00    +0.000 C 
ENDROOT
BRANCH   1  10
ATOM      4  C   UNL     1      46.982   2.937   5.777  0.00  0.00    +0.000 C 
ATOM      5  C   UNL     1      46.325   2.944   7.123  0.00  0.00    +0.000 A 
ATOM      6  C   UNL     1      46.065   1.767   7.816  0.00  0.00    +0.000 A 
ATOM      7  C   UNL     1      45.479   1.864   9.068  0.00  0.00    +0.000 A 
ATOM      8  N   UNL     1      45.134   3.028   9.660  0.00  0.00    +0.000 NA
ATOM      9  C   UNL     1      45.358   4.171   8.982  0.00  0.00    +0.000 A 
ATOM     10  N   UNL     1      45.065   5.441   9.537  0.00  0.00    +0.000 N 
ATOM     11  C   UNL     1      45.962   4.158   7.718  0.00  0.00    +0.000 A 
ATOM     12  H   UNL     1      44.580   5.996   8.840  0.00  0.00    +0.000 HD
ENDBRANCH   1  10
BRANCH   1  13
ATOM     13  C   UNL     1      45.507   5.519  12.029  0.00  0.00    +0.000 A 
ATOM     14  C   UNL     1      45.428   4.548  13.037  0.00  0.00    +0.000 A 
ATOM     15  C   UNL     1      46.417   4.437  14.012  0.00  0.00    +0.000 A 
ATOM     16  C   UNL     1      47.523   5.289  13.985  0.00  0.00    +0.000 A 
ATOM     17  C   UNL     1      47.655   6.275  12.995  0.00  0.00    +0.000 A 
ATOM     18  C   UNL     1      46.609   6.396  12.063  0.00  0.00    +0.000 A 
BRANCH  17  19
ATOM     19  C   UNL     1      48.889   7.080  12.852  0.00  0.00    +0.000 A 
ATOM     20  C   UNL     1      49.275   7.585  11.595  0.00  0.00    +0.000 A 
ATOM     21  C   UNL     1      50.374   8.439  11.456  0.00  0.00    +0.000 A 
ATOM     22  C   UNL     1      51.109   8.815  12.574  0.00  0.00    +0.000 A 
ATOM     23  C   UNL     1      50.757   8.324  13.828  0.00  0.00    +0.000 A 
ATOM     24  C   UNL     1      49.664   7.460  13.963  0.00  0.00    +0.000 A 
ENDBRANCH  17  19
ENDBRANCH   1  13
TORSDOF 3
ENDMDL
MODEL 4
REMARK VINA RESULT:    -7.088      1.935      6.672
REMARK INTER + INTRA:          -9.122
REMARK INTER:                  -8.715
REMARK INTRA:                  -0.407
REMARK UNBOUND:                -0.791
REMARK  Name = 
REMARK  4 active torsions:
REMARK  status: ('A' for Active; 'I' for Inactive)
REMARK    1  A    between atoms: C_1  and  C_2
REMARK    2  A    between atoms: N_7  and  C_8
REMARK    3  A    between atoms: C_8  and  C_9
REMARK    4  A    between atoms: C_13  and  C_14
REMARK                            x       y       z     vdW  Elec       q    Type
REMARK                         _______ _______ _______ _____ _____    ______ ____
ROOT
ATOM      1  C   UNL     1      45.179   6.408  11.541  0.00  0.00    +0.000 C 
ATOM      2  C   UNL     1      44.032   7.411  11.417  0.00  0.00    +0.000 C 
ATOM      3  C   UNL     1      44.437   6.914  12.764  0.00  0.00    +0.000 C 
ENDROOT
BRANCH   1  10
ATOM      4  C   UNL     1      51.101   8.392  12.083  0.00  0.00    +0.000 C 
ATOM      5  C   UNL     1      49.822   7.773  12.559  0.00  0.00    +0.000 A 
ATOM      6  C   UNL     1      49.653   7.368  13.878  0.00  0.00    +0.000 A 
ATOM      7  C   UNL     1      48.429   6.830  14.242  0.00  0.00    +0.000 A 
ATOM      8  N   UNL     1      47.388   6.664  13.398  0.00  0.00    +0.000 NA
ATOM      9  C   UNL     1      47.555   7.030  12.111  0.00  0.00    +0.000 A 
ATOM     10  N   UNL     1      46.508   6.929  11.162  0.00  0.00    +0.000 N 
ATOM     11  C   UNL     1      48.757   7.596  11.669  0.00  0.00    +0.000 A 
ATOM     12  H   UNL     1      46.877   6.510  10.315  0.00  0.00    +0.000 HD
ENDBRANCH   1  10
BRANCH   1  13
ATOM     13  C   UNL     1      44.907   4.969  11.108  0.00  0.00    +0.000 A 
ATOM     14  C   UNL     1      43.901   4.201  11.712  0.00  0.00    +0.000 A 
ATOM     15  C   UNL     1      43.584   2.928  11.243  0.00  0.00    +0.000 A 
ATOM     16  C   UNL     1      44.258   2.403  10.139  0.00  0.00    +0.000 A 
ATOM     17  C   UNL     1      45.269   3.131   9.492  0.00  0.00    +0.000 A 
ATOM     18  C   UNL     1      45.603   4.387  10.029  0.00  0.00    +0.000 A 
BRANCH  17  19
ATOM     19  C   UNL     1      45.885   2.664   8.229  0.00  0.00    +0.000 A 
ATOM     20  C   UNL     1      46.093   3.556   7.160  0.00  0.00    +0.000 A 
ATOM     21  C   UNL     1      46.772   3.163   6.001  0.00  0.00    +0.000 A 
ATOM     22  C   UNL     1      47.267   1.869   5.890  0.00  0.00    +0.000 A 
ATOM     23  C   UNL     1      47.068   0.963   6.928  0.00  0.00    +0.000 A 
ATOM     24  C   UNL     1      46.378   1.355   8.080  0.00  0.00    +0.000 A 
ENDBRANCH  17  19
ENDBRANCH   1  13
TORSDOF 3
ENDMDL
MODEL 5
REMARK VINA RESULT:    -6.981      1.714      6.781
REMARK INTER + INTRA:          -8.997
REMARK INTER:                  -8.266
REMARK INTRA:                  -0.731
REMARK UNBOUND:                -0.791
REMARK  Name = 
REMARK  4 active torsions:
REMARK  status: ('A' for Active; 'I' for Inactive)
REMARK    1  A    between atoms: C_1  and  C_2
REMARK    2  A    between atoms: N_7  and  C_8
REMARK    3  A    between atoms: C_8  and  C_9
REMARK    4  A    between atoms: C_13  and  C_14
REMARK                            x       y       z     vdW  Elec       q    Type
REMARK                         _______ _______ _______ _____ _____    ______ ____
ROOT
ATOM      1  C   UNL     1      46.177   5.438  13.281  0.00  0.00    +0.000 C 
ATOM      2  C   UNL     1      46.173   4.627  14.577  0.00  0.00    +0.000 C 
ATOM      3  C   UNL     1      47.330   4.522  13.641  0.00  0.00    +0.000 C 
ENDROOT
BRANCH   1  10
ATOM      4  C   UNL     1      48.282  11.325  12.808  0.00  0.00    +0.000 C 
ATOM      5  C   UNL     1      48.243   9.861  12.488  0.00  0.00    +0.000 A 
ATOM      6  C   UNL     1      49.158   9.279  11.619  0.00  0.00    +0.000 A 
ATOM      7  C   UNL     1      49.069   7.914  11.398  0.00  0.00    +0.000 A 
ATOM      8  N   UNL     1      48.146   7.108  11.966  0.00  0.00    +0.000 NA
ATOM      9  C   UNL     1      47.238   7.672  12.789  0.00  0.00    +0.000 A 
ATOM     10  N   UNL     1      46.256   6.902  13.461  0.00  0.00    +0.000 N 
ATOM     11  C   UNL     1      47.272   9.043  13.075  0.00  0.00    +0.000 A 
ATOM     12  H   UNL     1      45.359   7.367  13.367  0.00  0.00    +0.000 HD
ENDBRANCH   1  10
BRANCH   1  13
ATOM     13  C   UNL     1      45.247   4.979  12.160  0.00  0.00    +0.000 A 
ATOM     14  C   UNL     1      43.913   5.407  12.097  0.00  0.00    +0.000 A 
ATOM     15  C   UNL     1      43.098   5.073  11.016  0.00  0.00    +0.000 A 
ATOM     16  C   UNL     1      43.612   4.317   9.961  0.00  0.00    +0.000 A 
ATOM     17  C   UNL     1      44.942   3.869   9.970  0.00  0.00    +0.000 A 
ATOM     18  C   UNL     1      45.717   4.174  11.104  0.00  0.00    +0.000 A 
BRANCH  17  19
ATOM     19  C   UNL     1      45.553   3.205   8.796  0.00  0.00    +0.000 A 
ATOM     20  C   UNL     1      46.020   3.963   7.706  0.00  0.00    +0.000 A 
ATOM     21  C   UNL     1      46.699   3.367   6.638  0.00  0.00    +0.000 A 
ATOM     22  C   UNL     1      46.935   1.997   6.640  0.00  0.00    +0.000 A 
ATOM     23  C   UNL     1      46.477   1.221   7.701  0.00  0.00    +0.000 A 
ATOM     24  C   UNL     1      45.787   1.818   8.762  0.00  0.00    +0.000 A 
ENDBRANCH  17  19
ENDBRANCH   1  13
TORSDOF 3
ENDMDL
MODEL 6
REMARK VINA RESULT:    -6.915      2.923      7.219
REMARK INTER + INTRA:          -8.919
REMARK INTER:                  -9.854
REMARK INTRA:                   0.934
REMARK UNBOUND:                -0.791
REMARK  Name = 
REMARK  4 active torsions:
REMARK  status: ('A' for Active; 'I' for Inactive)
REMARK    1  A    between atoms: C_1  and  C_2
REMARK    2  A    between atoms: N_7  and  C_8
REMARK    3  A    between atoms: C_8  and  C_9
REMARK    4  A    between atoms: C_13  and  C_14
REMARK                            x       y       z     vdW  Elec       q    Type
REMARK                         _______ _______ _______ _____ _____    ______ ____
ROOT
ATOM      1  C   UNL     1      44.681   6.875  11.471  0.00  0.00    +0.000 C 
ATOM      2  C   UNL     1      45.284   7.244  12.826  0.00  0.00    +0.000 C 
ATOM      3  C   UNL     1      46.101   7.396  11.588  0.00  0.00    +0.000 C 
ENDROOT
BRANCH   1  10
ATOM      4  C   UNL     1      41.431  12.055  10.091  0.00  0.00    +0.000 C 
ATOM      5  C   UNL     1      42.650  11.272  10.470  0.00  0.00    +0.000 A 
ATOM      6  C   UNL     1      43.860  11.896  10.756  0.00  0.00    +0.000 A 
ATOM      7  C   UNL     1      44.932  11.101  11.126  0.00  0.00    +0.000 A 
ATOM      8  N   UNL     1      44.885   9.754  11.221  0.00  0.00    +0.000 NA
ATOM      9  C   UNL     1      43.722   9.141  10.919  0.00  0.00    +0.000 A 
ATOM     10  N   UNL     1      43.566   7.737  11.028  0.00  0.00    +0.000 N 
ATOM     11  C   UNL     1      42.589   9.877  10.553  0.00  0.00    +0.000 A 
ATOM     12  H   UNL     1      43.104   7.396  10.191  0.00  0.00    +0.000 HD
ENDBRANCH   1  10
BRANCH   1  13
ATOM     13  C   UNL     1      44.507   5.390  11.158  0.00  0.00    +0.000 A 
ATOM     14  C   UNL     1      43.541   4.614  11.813  0.00  0.00    +0.000 A 
ATOM     15  C   UNL     1      43.312   3.288  11.449  0.00  0.00    +0.000 A 
ATOM     16  C   UNL     1      44.037   2.716  10.402  0.00  0.00    +0.000 A 
ATOM     17  C   UNL     1      45.013   3.450   9.709  0.00  0.00    +0.000 A 
ATOM     18  C   UNL     1      45.257   4.765  10.142  0.00  0.00    +0.000 A 
BRANCH  17  19
ATOM     19  C   UNL     1      45.679   2.918   8.498  0.00  0.00    +0.000 A 
ATOM     20  C   UNL     1      46.017   3.773   7.432  0.00  0.00    +0.000 A 
ATOM     21  C   UNL     1      46.744   3.314   6.328  0.00  0.00    +0.000 A 
ATOM     22  C   UNL     1      47.159   1.988   6.271  0.00  0.00    +0.000 A 
ATOM     23  C   UNL     1      46.831   1.118   7.306  0.00  0.00    +0.000 A 
ATOM     24  C   UNL     1      46.093   1.577   8.403  0.00  0.00    +0.000 A 
ENDBRANCH  17  19
ENDBRANCH   1  13
TORSDOF 3
ENDMDL
MODEL 7
REMARK VINA RESULT:    -6.395      4.760      7.966
REMARK INTER + INTRA:          -8.308
REMARK INTER:                  -7.555
REMARK INTRA:                  -0.754
REMARK UNBOUND:                -0.791
REMARK  Name = 
REMARK  4 active torsions:
REMARK  status: ('A' for Active; 'I' for Inactive)
REMARK    1  A    between atoms: C_1  and  C_2
REMARK    2  A    between atoms: N_7  and  C_8
REMARK    3  A    between atoms: C_8  and  C_9
REMARK    4  A    between atoms: C_13  and  C_14
REMARK                            x       y       z     vdW  Elec       q    Type
REMARK                         _______ _______ _______ _____ _____    ______ ____
ROOT
ATOM      1  C   UNL     1      48.959   5.703  17.355  0.00  0.00    +0.000 C 
ATOM      2  C   UNL     1      48.154   6.434  18.429  0.00  0.00    +0.000 C 
ATOM      3  C   UNL     1      47.714   5.087  17.964  0.00  0.00    +0.000 C 
ENDROOT
BRANCH   1  10
ATOM      4  C   UNL     1      53.898   2.015  18.502  0.00  0.00    +0.000 C 
ATOM      5  C   UNL     1      52.534   2.341  17.975  0.00  0.00    +0.000 A 
ATOM      6  C   UNL     1      51.725   1.372  17.393  0.00  0.00    +0.000 A 
ATOM      7  C   UNL     1      50.466   1.752  16.955  0.00  0.00    +0.000 A 
ATOM      8  N   UNL     1      49.972   3.005  17.050  0.00  0.00    +0.000 NA
ATOM      9  C   UNL     1      50.762   3.955  17.589  0.00  0.00    +0.000 A 
ATOM     10  N   UNL     1      50.317   5.289  17.766  0.00  0.00    +0.000 N 
ATOM     11  C   UNL     1      52.042   3.647  18.069  0.00  0.00    +0.000 A 
ATOM     12  H   UNL     1      51.044   5.919  17.443  0.00  0.00    +0.000 HD
ENDBRANCH   1  10
BRANCH   1  13
ATOM     13  C   UNL     1      48.852   6.218  15.921  0.00  0.00    +0.000 A 
ATOM     14  C   UNL     1      49.822   7.072  15.377  0.00  0.00    +0.000 A 
ATOM     15  C   UNL     1      49.779   7.453  14.037  0.00  0.00    +0.000 A 
ATOM     16  C   UNL     1      48.768   6.968  13.206  0.00  0.00    +0.000 A 
ATOM     17  C   UNL     1      47.776   6.105  13.697  0.00  0.00    +0.000 A 
ATOM     18  C   UNL     1      47.817   5.789  15.067  0.00  0.00    +0.000 A 
BRANCH  17  19
ATOM     19  C   UNL     1      46.791   5.455  12.803  0.00  0.00    +0.000 A 
ATOM     20  C   UNL     1      46.203   4.226  13.157  0.00  0.00    +0.000 A 
ATOM     21  C   UNL     1      45.191   3.649  12.382  0.00  0.00    +0.000 A 
ATOM     22  C   UNL     1      44.737   4.294  11.237  0.00  0.00    +0.000 A 
ATOM     23  C   UNL     1      45.307   5.506  10.858  0.00  0.00    +0.000 A 
ATOM     24  C   UNL     1      46.327   6.075  11.628  0.00  0.00    +0.000 A 
ENDBRANCH  17  19
ENDBRANCH   1  13
TORSDOF 3
ENDMDL
MODEL 8
REMARK VINA RESULT:    -6.372      3.221      7.672
REMARK INTER + INTRA:          -8.280
REMARK INTER:                  -7.587
REMARK INTRA:                  -0.693
REMARK UNBOUND:                -0.791
REMARK  Name = 
REMARK  4 active torsions:
REMARK  status: ('A' for Active; 'I' for Inactive)
REMARK    1  A    between atoms: C_1  and  C_2
REMARK    2  A    between atoms: N_7  and  C_8
REMARK    3  A    between atoms: C_8  and  C_9
REMARK    4  A    between atoms: C_13  and  C_14
REMARK                            x       y       z     vdW  Elec       q    Type
REMARK                         _______ _______ _______ _____ _____    ______ ____
ROOT
ATOM      1  C   UNL     1      48.870   7.831  12.588  0.00  0.00    +0.000 C 
ATOM      2  C   UNL     1      49.848   8.009  11.427  0.00  0.00    +0.000 C 
ATOM      3  C   UNL     1      49.481   9.182  12.271  0.00  0.00    +0.000 C 
ENDROOT
BRANCH   1  10
ATOM      4  C   UNL     1      50.218   5.976  18.423  0.00  0.00    +0.000 C 
ATOM      5  C   UNL     1      49.603   6.860  17.382  0.00  0.00    +0.000 A 
ATOM      6  C   UNL     1      48.913   8.019  17.723  0.00  0.00    +0.000 A 
ATOM      7  C   UNL     1      48.398   8.795  16.697  0.00  0.00    +0.000 A 
ATOM      8  N   UNL     1      48.514   8.500  15.384  0.00  0.00    +0.000 NA
ATOM      9  C   UNL     1      49.159   7.364  15.049  0.00  0.00    +0.000 A 
ATOM     10  N   UNL     1      49.364   6.990  13.698  0.00  0.00    +0.000 N 
ATOM     11  C   UNL     1      49.722   6.534  16.027  0.00  0.00    +0.000 A 
ATOM     12  H   UNL     1      49.130   6.009  13.593  0.00  0.00    +0.000 HD
ENDBRANCH   1  10
BRANCH   1  13
ATOM     13  C   UNL     1      47.395   7.635  12.244  0.00  0.00    +0.000 A 
ATOM     14  C   UNL     1      46.464   8.671  12.403  0.00  0.00    +0.000 A 
ATOM     15  C   UNL     1      45.141   8.525  11.987  0.00  0.00    +0.000 A 
ATOM     16  C   UNL     1      44.728   7.337  11.382  0.00  0.00    +0.000 A 
ATOM     17  C   UNL     1      45.620   6.270  11.192  0.00  0.00    +0.000 A 
ATOM     18  C   UNL     1      46.930   6.432  11.677  0.00  0.00    +0.000 A 
BRANCH  17  19
ATOM     19  C   UNL     1      45.248   5.067  10.413  0.00  0.00    +0.000 A 
ATOM     20  C   UNL     1      45.621   4.945   9.061  0.00  0.00    +0.000 A 
ATOM     21  C   UNL     1      45.377   3.772   8.338  0.00  0.00    +0.000 A 
ATOM     22  C   UNL     1      44.761   2.689   8.955  0.00  0.00    +0.000 A 
ATOM     23  C   UNL     1      44.373   2.786  10.288  0.00  0.00    +0.000 A 
ATOM     24  C   UNL     1      44.607   3.964  11.005  0.00  0.00    +0.000 A 
ENDBRANCH  17  19
ENDBRANCH   1  13
TORSDOF 3
ENDMDL
MODEL 9
REMARK VINA RESULT:    -6.371      4.677      7.917
REMARK INTER + INTRA:          -8.280
REMARK INTER:                  -7.482
REMARK INTRA:                  -0.798
REMARK UNBOUND:                -0.791
REMARK  Name = 
REMARK  4 active torsions:
REMARK  status: ('A' for Active; 'I' for Inactive)
REMARK    1  A    between atoms: C_1  and  C_2
REMARK    2  A    between atoms: N_7  and  C_8
REMARK    3  A    between atoms: C_8  and  C_9
REMARK    4  A    between atoms: C_13  and  C_14
REMARK                            x       y       z     vdW  Elec       q    Type
REMARK                         _______ _______ _______ _____ _____    ______ ____
ROOT
ATOM      1  C   UNL     1      49.247   6.199  17.237  0.00  0.00    +0.000 C 
ATOM      2  C   UNL     1      48.686   7.169  18.277  0.00  0.00    +0.000 C 
ATOM      3  C   UNL     1      47.986   5.878  18.015  0.00  0.00    +0.000 C 
ENDROOT
BRANCH   1  10
ATOM      4  C   UNL     1      53.637   1.848  18.287  0.00  0.00    +0.000 C 
ATOM      5  C   UNL     1      52.303   2.356  17.831  0.00  0.00    +0.000 A 
ATOM      6  C   UNL     1      51.314   1.497  17.366  0.00  0.00    +0.000 A 
ATOM      7  C   UNL     1      50.099   2.045  16.989  0.00  0.00    +0.000 A 
ATOM      8  N   UNL     1      49.810   3.364  17.037  0.00  0.00    +0.000 NA
ATOM      9  C   UNL     1      50.775   4.205  17.462  0.00  0.00    +0.000 A 
ATOM     10  N   UNL     1      50.552   5.600  17.582  0.00  0.00    +0.000 N 
ATOM     11  C   UNL     1      52.024   3.726  17.875  0.00  0.00    +0.000 A 
ATOM     12  H   UNL     1      51.340   6.090  17.173  0.00  0.00    +0.000 HD
ENDBRANCH   1  10
BRANCH   1  13
ATOM     13  C   UNL     1      49.082   6.571  15.765  0.00  0.00    +0.000 A 
ATOM     14  C   UNL     1      50.061   7.306  15.083  0.00  0.00    +0.000 A 
ATOM     15  C   UNL     1      49.958   7.551  13.714  0.00  0.00    +0.000 A 
ATOM     16  C   UNL     1      48.875   7.044  12.994  0.00  0.00    +0.000 A 
ATOM     17  C   UNL     1      47.869   6.296  13.626  0.00  0.00    +0.000 A 
ATOM     18  C   UNL     1      47.976   6.119  15.017  0.00  0.00    +0.000 A 
BRANCH  17  19
ATOM     19  C   UNL     1      46.800   5.617  12.860  0.00  0.00    +0.000 A 
ATOM     20  C   UNL     1      46.351   6.144  11.634  0.00  0.00    +0.000 A 
ATOM     21  C   UNL     1      45.422   5.462  10.841  0.00  0.00    +0.000 A 
ATOM     22  C   UNL     1      44.927   4.230  11.253  0.00  0.00    +0.000 A 
ATOM     23  C   UNL     1      45.347   3.689  12.464  0.00  0.00    +0.000 A 
ATOM     24  C   UNL     1      46.266   4.379  13.261  0.00  0.00    +0.000 A 
ENDBRANCH  17  19
ENDBRANCH   1  13
TORSDOF 3
ENDMDL
