MODEL 1
REMARK VINA RESULT:    -8.130      0.000      0.000
REMARK INTER + INTRA:         -12.130
REMARK INTER:                 -11.220
REMARK INTRA:                  -0.911
REMARK UNBOUND:                -0.911
REMARK  Name = 
REMARK  7 active torsions:
REMARK  status: ('A' for Active; 'I' for Inactive)
REMARK    1  A    between atoms: C_2  and  C_3
REMARK    2  A    between atoms: C_6  and  N_7
REMARK    3  A    between atoms: N_7  and  C_8
REMARK    4  A    between atoms: C_8  and  C_9
REMARK    5  A    between atoms: C_9  and  O_10
REMARK    6  A    between atoms: C_9  and  C_11
REMARK    7  A    between atoms: C_15  and  C_16
REMARK                            x       y       z     vdW  Elec       q    Type
REMARK                         _______ _______ _______ _____ _____    ______ ____
ROOT
ATOM      1  C   UNL     1      43.519   5.568  12.354  0.00  0.00    +0.000 C 
ENDROOT
BRANCH   1   2
ATOM      2  C   UNL     1      45.005   5.580  12.686  0.00  0.00    +0.000 A 
ATOM      3  C   UNL     1      45.532   4.643  13.579  0.00  0.00    +0.000 A 
ATOM      4  C   UNL     1      46.866   4.723  13.974  0.00  0.00    +0.000 A 
ATOM      5  C   UNL     1      47.682   5.756  13.500  0.00  0.00    +0.000 A 
ATOM      6  C   UNL     1      47.200   6.712  12.590  0.00  0.00    +0.000 A 
ATOM      7  C   UNL     1      45.859   6.576  12.174  0.00  0.00    +0.000 A 
BRANCH   6   8
ATOM      8  C   UNL     1      48.038   7.848  12.129  0.00  0.00    +0.000 A 
ATOM      9  C   UNL     1      49.390   7.679  11.777  0.00  0.00    +0.000 A 
ATOM     10  C   UNL     1      50.186   8.765  11.390  0.00  0.00    +0.000 A 
ATOM     11  C   UNL     1      49.644  10.044  11.328  0.00  0.00    +0.000 A 
ATOM     12  C   UNL     1      48.306  10.239  11.653  0.00  0.00    +0.000 A 
ATOM     13  C   UNL     1      47.520   9.155  12.055  0.00  0.00    +0.000 A 
ENDBRANCH   6   8
ENDBRANCH   1   2
BRANCH   1  14
ATOM     14  O   UNL     1      42.737   5.432  13.543  0.00  0.00    +0.000 OA
ATOM     15  H   UNL     1      43.012   6.120  14.169  0.00  0.00    +0.000 HD
ENDBRANCH   1  14
BRANCH   1  16
ATOM     16  C   UNL     1      43.201   4.421  11.366  0.00  0.00    +0.000 C 
BRANCH  16  17
ATOM     17  N   UNL     1      43.567   4.741   9.997  0.00  0.00    +0.000 N 
ATOM     18  H   UNL     1      43.010   5.406   9.469  0.00  0.00    +0.000 HD
BRANCH  17  22
ATOM     19  C   UNL     1      46.264   2.531   7.860  0.00  0.00    +0.000 A 
ATOM     20  C   UNL     1      46.127   3.897   7.690  0.00  0.00    +0.000 A 
ATOM     21  N   UNL     1      45.207   4.637   8.372  0.00  0.00    +0.000 NA
ATOM     22  C   UNL     1      44.430   3.976   9.253  0.00  0.00    +0.000 A 
ATOM     23  C   UNL     1      44.579   2.591   9.398  0.00  0.00    +0.000 A 
ATOM     24  N   UNL     1      45.479   1.839   8.715  0.00  0.00    +0.000 NA
BRANCH  19  26
ATOM     25  N   UNL     1      48.071   1.200   6.557  0.00  0.00    +0.000 NA
ATOM     26  C   UNL     1      47.266   1.790   7.155  0.00  0.00    +0.000 C 
ENDBRANCH  19  26
ENDBRANCH  17  22
ENDBRANCH  16  17
ENDBRANCH   1  16
TORSDOF 7
ENDMDL
MODEL 2
REMARK VINA RESULT:    -7.745      3.329      6.998
REMARK INTER + INTRA:         -11.599
REMARK INTER:                 -10.985
REMARK INTRA:                  -0.614
REMARK UNBOUND:                -0.911
REMARK  Name = 
REMARK  7 active torsions:
REMARK  status: ('A' for Active; 'I' for Inactive)
REMARK    1  A    between atoms: C_2  and  C_3
REMARK    2  A    between atoms: C_6  and  N_7
REMARK    3  A    between atoms: N_7  and  C_8
REMARK    4  A    between atoms: C_8  and  C_9
REMARK    5  A    between atoms: C_9  and  O_10
REMARK    6  A    between atoms: C_9  and  C_11
REMARK    7  A    between atoms: C_15  and  C_16
REMARK                            x       y       z     vdW  Elec       q    Type
REMARK                         _______ _______ _______ _____ _____    ______ ____
ROOT
ATOM      1  C   UNL     1      44.374   6.417  11.883  0.00  0.00    +0.000 C 
ENDROOT
BRANCH   1   2
ATOM      2  C   UNL     1      44.187   5.021  11.304  0.00  0.00    +0.000 A 
ATOM      3  C   UNL     1      43.420   4.074  11.990  0.00  0.00    +0.000 A 
ATOM      4  C   UNL     1      43.342   2.763  11.523  0.00  0.00    +0.000 A 
ATOM      5  C   UNL     1      44.048   2.378  10.379  0.00  0.00    +0.000 A 
ATOM      6  C   UNL     1      44.820   3.298   9.649  0.00  0.00    +0.000 A 
ATOM      7  C   UNL     1      44.842   4.626  10.121  0.00  0.00    +0.000 A 
BRANCH   6   8
ATOM      8  C   UNL     1      45.624   2.886   8.471  0.00  0.00    +0.000 A 
ATOM      9  C   UNL     1      46.132   1.580   8.337  0.00  0.00    +0.000 A 
ATOM     10  C   UNL     1      46.930   1.214   7.246  0.00  0.00    +0.000 A 
ATOM     11  C   UNL     1      47.225   2.140   6.251  0.00  0.00    +0.000 A 
ATOM     12  C   UNL     1      46.722   3.433   6.347  0.00  0.00    +0.000 A 
ATOM     13  C   UNL     1      45.940   3.799   7.446  0.00  0.00    +0.000 A 
ENDBRANCH   6   8
ENDBRANCH   1   2
BRANCH   1  14
ATOM     14  O   UNL     1      43.773   7.400  11.038  0.00  0.00    +0.000 OA
ATOM     15  H   UNL     1      43.914   7.135  10.116  0.00  0.00    +0.000 HD
ENDBRANCH   1  14
BRANCH   1  16
ATOM     16  C   UNL     1      45.880   6.718  12.075  0.00  0.00    +0.000 C 
BRANCH  16  17
ATOM     17  N   UNL     1      46.633   5.558  12.521  0.00  0.00    +0.000 N 
ATOM     18  H   UNL     1      46.621   4.706  11.968  0.00  0.00    +0.000 HD
BRANCH  17  22
ATOM     19  C   UNL     1      48.129   5.009  16.287  0.00  0.00    +0.000 A 
ATOM     20  C   UNL     1      47.143   4.197  15.757  0.00  0.00    +0.000 A 
ATOM     21  N   UNL     1      46.613   4.393  14.517  0.00  0.00    +0.000 NA
ATOM     22  C   UNL     1      47.110   5.421  13.800  0.00  0.00    +0.000 A 
ATOM     23  C   UNL     1      48.100   6.236  14.363  0.00  0.00    +0.000 A 
ATOM     24  N   UNL     1      48.626   6.064  15.603  0.00  0.00    +0.000 NA
BRANCH  19  26
ATOM     25  N   UNL     1      49.159   4.520  18.618  0.00  0.00    +0.000 NA
ATOM     26  C   UNL     1      48.691   4.753  17.579  0.00  0.00    +0.000 C 
ENDBRANCH  19  26
ENDBRANCH  17  22
ENDBRANCH  16  17
ENDBRANCH   1  16
TORSDOF 7
ENDMDL
MODEL 3
REMARK VINA RESULT:    -7.692      1.695      3.741
REMARK INTER + INTRA:         -11.525
REMARK INTER:                 -10.657
REMARK INTRA:                  -0.868
REMARK UNBOUND:                -0.911
REMARK  Name = 
REMARK  7 active torsions:
REMARK  status: ('A' for Active; 'I' for Inactive)
REMARK    1  A    between atoms: C_2  and  C_3
REMARK    2  A    between atoms: C_6  and  N_7
REMARK    3  A    between atoms: N_7  and  C_8
REMARK    4  A    between atoms: C_8  and  C_9
REMARK    5  A    between atoms: C_9  and  O_10
REMARK    6  A    between atoms: C_9  and  C_11
REMARK    7  A    between atoms: C_15  and  C_16
REMARK                            x       y       z     vdW  Elec       q    Type
REMARK                         _______ _______ _______ _____ _____    ______ ____
ROOT
ATOM      1  C   UNL     1      43.709   5.384  12.058  0.00  0.00    +0.000 C 
ENDROOT
BRANCH   1   2
ATOM      2  C   UNL     1      45.127   5.778  12.450  0.00  0.00    +0.000 A 
ATOM      3  C   UNL     1      45.920   6.514  11.564  0.00  0.00    +0.000 A 
ATOM      4  C   UNL     1      47.255   6.776  11.869  0.00  0.00    +0.000 A 
ATOM      5  C   UNL     1      47.818   6.285  13.052  0.00  0.00    +0.000 A 
ATOM      6  C   UNL     1      47.056   5.554  13.979  0.00  0.00    +0.000 A 
ATOM      7  C   UNL     1      45.698   5.346  13.662  0.00  0.00    +0.000 A 
BRANCH   6   8
ATOM      8  C   UNL     1      47.659   4.976  15.206  0.00  0.00    +0.000 A 
ATOM      9  C   UNL     1      48.527   5.717  16.028  0.00  0.00    +0.000 A 
ATOM     10  C   UNL     1      49.129   5.148  17.158  0.00  0.00    +0.000 A 
ATOM     11  C   UNL     1      48.863   3.827  17.503  0.00  0.00    +0.000 A 
ATOM     12  C   UNL     1      47.995   3.075  16.720  0.00  0.00    +0.000 A 
ATOM     13  C   UNL     1      47.409   3.642  15.584  0.00  0.00    +0.000 A 
ENDBRANCH   6   8
ENDBRANCH   1   2
BRANCH   1  14
ATOM     14  O   UNL     1      42.825   5.502  13.174  0.00  0.00    +0.000 OA
ATOM     15  H   UNL     1      42.226   4.739  13.170  0.00  0.00    +0.000 HD
ENDBRANCH   1  14
BRANCH   1  16
ATOM     16  C   UNL     1      43.690   3.939  11.504  0.00  0.00    +0.000 C 
BRANCH  16  17
ATOM     17  N   UNL     1      43.616   3.894  10.054  0.00  0.00    +0.000 N 
ATOM     18  H   UNL     1      42.712   3.944   9.594  0.00  0.00    +0.000 HD
BRANCH  17  22
ATOM     19  C   UNL     1      46.605   2.554   7.606  0.00  0.00    +0.000 A 
ATOM     20  C   UNL     1      45.909   1.711   8.453  0.00  0.00    +0.000 A 
ATOM     21  N   UNL     1      44.936   2.154   9.298  0.00  0.00    +0.000 NA
ATOM     22  C   UNL     1      44.656   3.472   9.264  0.00  0.00    +0.000 A 
ATOM     23  C   UNL     1      45.382   4.307   8.406  0.00  0.00    +0.000 A 
ATOM     24  N   UNL     1      46.366   3.884   7.571  0.00  0.00    +0.000 NA
BRANCH  19  26
ATOM     25  N   UNL     1      48.407   1.620   5.989  0.00  0.00    +0.000 NA
ATOM     26  C   UNL     1      47.597   2.051   6.704  0.00  0.00    +0.000 C 
ENDBRANCH  19  26
ENDBRANCH  17  22
ENDBRANCH  16  17
ENDBRANCH   1  16
TORSDOF 7
ENDMDL
MODEL 4
REMARK VINA RESULT:    -7.297      1.383      2.056
REMARK INTER + INTRA:         -10.981
REMARK INTER:                 -10.713
REMARK INTRA:                  -0.268
REMARK UNBOUND:                -0.911
REMARK  Name = 
REMARK  7 active torsions:
REMARK  status: ('A' for Active; 'I' for Inactive)
REMARK    1  A    between atoms: C_2  and  C_3
REMARK    2  A    between atoms: C_6  and  N_7
REMARK    3  A    between atoms: N_7  and  C_8
REMARK    4  A    between atoms: C_8  and  C_9
REMARK    5  A    between atoms: C_9  and  O_10
REMARK    6  A    between atoms: C_9  and  C_11
REMARK    7  A    between atoms: C_15  and  C_16
REMARK                            x       y       z     vdW  Elec       q    Type
REMARK                         _______ _______ _______ _____ _____    ______ ____
ROOT
ATOM      1  C   UNL     1      44.341   3.618  12.537  0.00  0.00    +0.000 C 
ENDROOT
BRANCH   1   2
ATOM      2  C   UNL     1      44.713   5.085  12.370  0.00  0.00    +0.000 A 
ATOM      3  C   UNL     1      43.789   5.986  11.832  0.00  0.00    +0.000 A 
ATOM      4  C   UNL     1      44.164   7.303  11.569  0.00  0.00    +0.000 A 
ATOM      5  C   UNL     1      45.474   7.727  11.816  0.00  0.00    +0.000 A 
ATOM      6  C   UNL     1      46.433   6.861  12.369  0.00  0.00    +0.000 A 
ATOM      7  C   UNL     1      46.009   5.549  12.667  0.00  0.00    +0.000 A 
BRANCH   6   8
ATOM      8  C   UNL     1      47.841   7.281  12.577  0.00  0.00    +0.000 A 
ATOM      9  C   UNL     1      48.611   7.841  11.540  0.00  0.00    +0.000 A 
ATOM     10  C   UNL     1      49.954   8.190  11.733  0.00  0.00    +0.000 A 
ATOM     11  C   UNL     1      50.555   8.004  12.973  0.00  0.00    +0.000 A 
ATOM     12  C   UNL     1      49.815   7.470  14.022  0.00  0.00    +0.000 A 
ATOM     13  C   UNL     1      48.480   7.107  13.820  0.00  0.00    +0.000 A 
ENDBRANCH   6   8
ENDBRANCH   1   2
BRANCH   1  14
ATOM     14  O   UNL     1      45.511   2.814  12.698  0.00  0.00    +0.000 OA
ATOM     15  H   UNL     1      46.059   2.912  11.903  0.00  0.00    +0.000 HD
ENDBRANCH   1  14
BRANCH   1  16
ATOM     16  C   UNL     1      43.515   3.134  11.321  0.00  0.00    +0.000 C 
BRANCH  16  17
ATOM     17  N   UNL     1      43.858   3.833  10.095  0.00  0.00    +0.000 N 
ATOM     18  H   UNL     1      43.275   4.599   9.771  0.00  0.00    +0.000 HD
BRANCH  17  22
ATOM     19  C   UNL     1      46.603   2.432   7.406  0.00  0.00    +0.000 A 
ATOM     20  C   UNL     1      46.177   3.748   7.410  0.00  0.00    +0.000 A 
ATOM     21  N   UNL     1      45.237   4.216   8.279  0.00  0.00    +0.000 NA
ATOM     22  C   UNL     1      44.739   3.333   9.169  0.00  0.00    +0.000 A 
ATOM     23  C   UNL     1      45.178   2.004   9.136  0.00  0.00    +0.000 A 
ATOM     24  N   UNL     1      46.101   1.519   8.267  0.00  0.00    +0.000 NA
BRANCH  19  26
ATOM     25  N   UNL     1      48.466   1.626   5.790  0.00  0.00    +0.000 NA
ATOM     26  C   UNL     1      47.619   1.981   6.504  0.00  0.00    +0.000 C 
ENDBRANCH  19  26
ENDBRANCH  17  22
ENDBRANCH  16  17
ENDBRANCH   1  16
TORSDOF 7
ENDMDL
MODEL 5
REMARK VINA RESULT:    -7.244      3.338      6.932
REMARK INTER + INTRA:         -10.907
REMARK INTER:                 -10.298
REMARK INTRA:                  -0.609
REMARK UNBOUND:                -0.911
REMARK  Name = 
REMARK  7 active torsions:
REMARK  status: ('A' for Active; 'I' for Inactive)
REMARK    1  A    between atoms: C_2  and  C_3
REMARK    2  A    between atoms: C_6  and  N_7
REMARK    3  A    between atoms: N_7  and  C_8
REMARK    4  A    between atoms: C_8  and  C_9
REMARK    5  A    between atoms: C_9  and  O_10
REMARK    6  A    between atoms: C_9  and  C_11
REMARK    7  A    between atoms: C_15  and  C_16
REMARK                            x       y       z     vdW  Elec       q    Type
REMARK                         _______ _______ _______ _____ _____    ______ ____
ROOT
ATOM      1  C   UNL     1      44.311   6.455  11.690  0.00  0.00    +0.000 C 
ENDROOT
BRANCH   1   2
ATOM      2  C   UNL     1      44.137   5.039  11.159  0.00  0.00    +0.000 A 
ATOM      3  C   UNL     1      43.369   4.112  11.872  0.00  0.00    +0.000 A 
ATOM      4  C   UNL     1      43.303   2.785  11.452  0.00  0.00    +0.000 A 
ATOM      5  C   UNL     1      44.023   2.363  10.329  0.00  0.00    +0.000 A 
ATOM      6  C   UNL     1      44.797   3.261   9.573  0.00  0.00    +0.000 A 
ATOM      7  C   UNL     1      44.806   4.606   9.998  0.00  0.00    +0.000 A 
BRANCH   6   8
ATOM      8  C   UNL     1      45.614   2.812   8.419  0.00  0.00    +0.000 A 
ATOM      9  C   UNL     1      46.148   1.512   8.347  0.00  0.00    +0.000 A 
ATOM     10  C   UNL     1      46.959   1.112   7.276  0.00  0.00    +0.000 A 
ATOM     11  C   UNL     1      47.240   1.998   6.242  0.00  0.00    +0.000 A 
ATOM     12  C   UNL     1      46.712   3.284   6.277  0.00  0.00    +0.000 A 
ATOM     13  C   UNL     1      45.917   3.684   7.355  0.00  0.00    +0.000 A 
ENDBRANCH   6   8
ENDBRANCH   1   2
BRANCH   1  14
ATOM     14  O   UNL     1      43.427   7.358  11.021  0.00  0.00    +0.000 OA
ATOM     15  H   UNL     1      42.849   6.841  10.438  0.00  0.00    +0.000 HD
ENDBRANCH   1  14
BRANCH   1  16
ATOM     16  C   UNL     1      45.779   6.913  11.521  0.00  0.00    +0.000 C 
BRANCH  16  17
ATOM     17  N   UNL     1      46.722   6.040  12.199  0.00  0.00    +0.000 N 
ATOM     18  H   UNL     1      46.456   5.085  12.419  0.00  0.00    +0.000 HD
BRANCH  17  22
ATOM     19  C   UNL     1      49.987   7.574  14.125  0.00  0.00    +0.000 A 
ATOM     20  C   UNL     1      49.722   7.839  12.794  0.00  0.00    +0.000 A 
ATOM     21  N   UNL     1      48.655   7.304  12.134  0.00  0.00    +0.000 NA
ATOM     22  C   UNL     1      47.839   6.503  12.848  0.00  0.00    +0.000 A 
ATOM     23  C   UNL     1      48.136   6.241  14.190  0.00  0.00    +0.000 A 
ATOM     24  N   UNL     1      49.202   6.752  14.857  0.00  0.00    +0.000 NA
BRANCH  19  26
ATOM     25  N   UNL     1      52.013   8.657  15.331  0.00  0.00    +0.000 NA
ATOM     26  C   UNL     1      51.095   8.181  14.799  0.00  0.00    +0.000 C 
ENDBRANCH  19  26
ENDBRANCH  17  22
ENDBRANCH  16  17
ENDBRANCH   1  16
TORSDOF 7
ENDMDL
MODEL 6
REMARK VINA RESULT:    -6.708      2.043      2.722
REMARK INTER + INTRA:         -10.167
REMARK INTER:                  -9.335
REMARK INTRA:                  -0.832
REMARK UNBOUND:                -0.911
REMARK  Name = 
REMARK  7 active torsions:
REMARK  status: ('A' for Active; 'I' for Inactive)
REMARK    1  A    between atoms: C_2  and  C_3
REMARK    2  A    between atoms: C_6  and  N_7
REMARK    3  A    between atoms: N_7  and  C_8
REMARK    4  A    between atoms: C_8  and  C_9
REMARK    5  A    between atoms: C_9  and  O_10
REMARK    6  A    between atoms: C_9  and  C_11
REMARK    7  A    between atoms: C_15  and  C_16
REMARK                            x       y       z     vdW  Elec       q    Type
REMARK                         _______ _______ _______ _____ _____    ______ ____
ROOT
ATOM      1  C   UNL     1      44.225   4.845  12.540  0.00  0.00    +0.000 C 
ENDROOT
BRANCH   1   2
ATOM      2  C   UNL     1      45.241   5.942  12.249  0.00  0.00    +0.000 A 
ATOM      3  C   UNL     1      46.609   5.685  12.387  0.00  0.00    +0.000 A 
ATOM      4  C   UNL     1      47.535   6.716  12.235  0.00  0.00    +0.000 A 
ATOM      5  C   UNL     1      47.103   8.020  11.968  0.00  0.00    +0.000 A 
ATOM      6  C   UNL     1      45.740   8.323  11.808  0.00  0.00    +0.000 A 
ATOM      7  C   UNL     1      44.832   7.249  11.921  0.00  0.00    +0.000 A 
BRANCH   6   8
ATOM      8  C   UNL     1      45.266   9.712  11.587  0.00  0.00    +0.000 A 
ATOM      9  C   UNL     1      46.087  10.827  11.843  0.00  0.00    +0.000 A 
ATOM     10  C   UNL     1      45.615  12.135  11.678  0.00  0.00    +0.000 A 
ATOM     11  C   UNL     1      44.316  12.361  11.236  0.00  0.00    +0.000 A 
ATOM     12  C   UNL     1      43.488  11.280  10.958  0.00  0.00    +0.000 A 
ATOM     13  C   UNL     1      43.957   9.975  11.139  0.00  0.00    +0.000 A 
ENDBRANCH   6   8
ENDBRANCH   1   2
BRANCH   1  14
ATOM     14  O   UNL     1      44.262   4.475  13.920  0.00  0.00    +0.000 OA
ATOM     15  H   UNL     1      43.554   3.832  14.081  0.00  0.00    +0.000 HD
ENDBRANCH   1  14
BRANCH   1  16
ATOM     16  C   UNL     1      44.497   3.614  11.643  0.00  0.00    +0.000 C 
BRANCH  16  17
ATOM     17  N   UNL     1      44.231   3.872  10.238  0.00  0.00    +0.000 N 
ATOM     18  H   UNL     1      43.313   4.197   9.950  0.00  0.00    +0.000 HD
BRANCH  17  22
ATOM     19  C   UNL     1      46.757   2.566   7.299  0.00  0.00    +0.000 A 
ATOM     20  C   UNL     1      46.456   3.904   7.475  0.00  0.00    +0.000 A 
ATOM     21  N   UNL     1      45.588   4.346   8.429  0.00  0.00    +0.000 NA
ATOM     22  C   UNL     1      45.035   3.411   9.226  0.00  0.00    +0.000 A 
ATOM     23  C   UNL     1      45.347   2.061   9.021  0.00  0.00    +0.000 A 
ATOM     24  N   UNL     1      46.196   1.604   8.066  0.00  0.00    +0.000 NA
BRANCH  19  26
ATOM     25  N   UNL     1      48.483   1.773   5.531  0.00  0.00    +0.000 NA
ATOM     26  C   UNL     1      47.702   2.138   6.312  0.00  0.00    +0.000 C 
ENDBRANCH  19  26
ENDBRANCH  17  22
ENDBRANCH  16  17
ENDBRANCH   1  16
TORSDOF 7
ENDMDL
MODEL 7
REMARK VINA RESULT:    -6.487      3.196      6.885
REMARK INTER + INTRA:          -9.862
REMARK INTER:                  -9.173
REMARK INTRA:                  -0.689
REMARK UNBOUND:                -0.911
REMARK  Name = 
REMARK  7 active torsions:
REMARK  status: ('A' for Active; 'I' for Inactive)
REMARK    1  A    between atoms: C_2  and  C_3
REMARK    2  A    between atoms: C_6  and  N_7
REMARK    3  A    between atoms: N_7  and  C_8
REMARK    4  A    between atoms: C_8  and  C_9
REMARK    5  A    between atoms: C_9  and  O_10
REMARK    6  A    between atoms: C_9  and  C_11
REMARK    7  A    between atoms: C_15  and  C_16
REMARK                            x       y       z     vdW  Elec       q    Type
REMARK                         _______ _______ _______ _____ _____    ______ ____
ROOT
ATOM      1  C   UNL     1      45.380   5.828  12.772  0.00  0.00    +0.000 C 
ENDROOT
BRANCH   1   2
ATOM      2  C   UNL     1      44.807   4.711  11.910  0.00  0.00    +0.000 A 
ATOM      3  C   UNL     1      43.756   3.925  12.391  0.00  0.00    +0.000 A 
ATOM      4  C   UNL     1      43.306   2.829  11.656  0.00  0.00    +0.000 A 
ATOM      5  C   UNL     1      43.918   2.493  10.443  0.00  0.00    +0.000 A 
ATOM      6  C   UNL     1      44.969   3.263   9.914  0.00  0.00    +0.000 A 
ATOM      7  C   UNL     1      45.369   4.391  10.660  0.00  0.00    +0.000 A 
BRANCH   6   8
ATOM      8  C   UNL     1      45.667   2.880   8.661  0.00  0.00    +0.000 A 
ATOM      9  C   UNL     1      46.093   1.560   8.421  0.00  0.00    +0.000 A 
ATOM     10  C   UNL     1      46.794   1.218   7.258  0.00  0.00    +0.000 A 
ATOM     11  C   UNL     1      47.070   2.185   6.297  0.00  0.00    +0.000 A 
ATOM     12  C   UNL     1      46.647   3.493   6.498  0.00  0.00    +0.000 A 
ATOM     13  C   UNL     1      45.962   3.834   7.668  0.00  0.00    +0.000 A 
ENDBRANCH   6   8
ENDBRANCH   1   2
BRANCH   1  14
ATOM     14  O   UNL     1      44.336   6.656  13.288  0.00  0.00    +0.000 OA
ATOM     15  H   UNL     1      44.260   6.493  14.241  0.00  0.00    +0.000 HD
ENDBRANCH   1  14
BRANCH   1  16
ATOM     16  C   UNL     1      46.385   6.673  11.953  0.00  0.00    +0.000 C 
BRANCH  16  17
ATOM     17  N   UNL     1      47.259   7.476  12.790  0.00  0.00    +0.000 N 
ATOM     18  H   UNL     1      46.945   7.771  13.710  0.00  0.00    +0.000 HD
BRANCH  17  22
ATOM     19  C   UNL     1      50.539   9.343  11.214  0.00  0.00    +0.000 A 
ATOM     20  C   UNL     1      50.564   8.022  11.621  0.00  0.00    +0.000 A 
ATOM     21  N   UNL     1      49.487   7.400  12.180  0.00  0.00    +0.000 NA
ATOM     22  C   UNL     1      48.363   8.134  12.307  0.00  0.00    +0.000 A 
ATOM     23  C   UNL     1      48.366   9.473  11.899  0.00  0.00    +0.000 A 
ATOM     24  N   UNL     1      49.434  10.110  11.356  0.00  0.00    +0.000 NA
BRANCH  19  26
ATOM     25  N   UNL     1      52.594  10.437  10.070  0.00  0.00    +0.000 NA
ATOM     26  C   UNL     1      51.677   9.955  10.597  0.00  0.00    +0.000 C 
ENDBRANCH  19  26
ENDBRANCH  17  22
ENDBRANCH  16  17
ENDBRANCH   1  16
TORSDOF 7
ENDMDL
MODEL 8
REMARK VINA RESULT:    -6.349      4.087      7.248
REMARK INTER + INTRA:          -9.673
REMARK INTER:                  -8.710
REMARK INTRA:                  -0.963
REMARK UNBOUND:                -0.911
REMARK  Name = 
REMARK  7 active torsions:
REMARK  status: ('A' for Active; 'I' for Inactive)
REMARK    1  A    between atoms: C_2  and  C_3
REMARK    2  A    between atoms: C_6  and  N_7
REMARK    3  A    between atoms: N_7  and  C_8
REMARK    4  A    between atoms: C_8  and  C_9
REMARK    5  A    between atoms: C_9  and  O_10
REMARK    6  A    between atoms: C_9  and  C_11
REMARK    7  A    between atoms: C_15  and  C_16
REMARK                            x       y       z     vdW  Elec       q    Type
REMARK                         _______ _______ _______ _____ _____    ______ ____
ROOT
ATOM      1  C   UNL     1      49.153   8.289  12.419  0.00  0.00    +0.000 C 
ENDROOT
BRANCH   1   2
ATOM      2  C   UNL     1      47.676   8.026  12.157  0.00  0.00    +0.000 A 
ATOM      3  C   UNL     1      46.703   8.820  12.772  0.00  0.00    +0.000 A 
ATOM      4  C   UNL     1      45.351   8.511  12.629  0.00  0.00    +0.000 A 
ATOM      5  C   UNL     1      44.958   7.390  11.890  0.00  0.00    +0.000 A 
ATOM      6  C   UNL     1      45.899   6.570  11.243  0.00  0.00    +0.000 A 
ATOM      7  C   UNL     1      47.255   6.937  11.369  0.00  0.00    +0.000 A 
BRANCH   6   8
ATOM      8  C   UNL     1      45.498   5.344  10.510  0.00  0.00    +0.000 A 
ATOM      9  C   UNL     1      45.780   5.169   9.142  0.00  0.00    +0.000 A 
ATOM     10  C   UNL     1      45.355   4.030   8.447  0.00  0.00    +0.000 A 
ATOM     11  C   UNL     1      44.652   3.028   9.108  0.00  0.00    +0.000 A 
ATOM     12  C   UNL     1      44.373   3.164  10.463  0.00  0.00    +0.000 A 
ATOM     13  C   UNL     1      44.785   4.311  11.149  0.00  0.00    +0.000 A 
ENDBRANCH   6   8
ENDBRANCH   1   2
BRANCH   1  14
ATOM     14  O   UNL     1      49.938   7.144  12.078  0.00  0.00    +0.000 OA
ATOM     15  H   UNL     1      50.757   7.171  12.597  0.00  0.00    +0.000 HD
ENDBRANCH   1  14
BRANCH   1  16
ATOM     16  C   UNL     1      49.373   8.672  13.902  0.00  0.00    +0.000 C 
BRANCH  16  17
ATOM     17  N   UNL     1      49.978   7.601  14.675  0.00  0.00    +0.000 N 
ATOM     18  H   UNL     1      50.960   7.377  14.543  0.00  0.00    +0.000 HD
BRANCH  17  22
ATOM     19  C   UNL     1      47.879   4.671  16.608  0.00  0.00    +0.000 A 
ATOM     20  C   UNL     1      47.756   4.896  15.249  0.00  0.00    +0.000 A 
ATOM     21  N   UNL     1      48.424   5.892  14.602  0.00  0.00    +0.000 NA
ATOM     22  C   UNL     1      49.244   6.658  15.349  0.00  0.00    +0.000 A 
ATOM     23  C   UNL     1      49.343   6.418  16.725  0.00  0.00    +0.000 A 
ATOM     24  N   UNL     1      48.672   5.441  17.387  0.00  0.00    +0.000 NA
BRANCH  19  26
ATOM     25  N   UNL     1      46.628   2.704  17.746  0.00  0.00    +0.000 NA
ATOM     26  C   UNL     1      47.192   3.592  17.251  0.00  0.00    +0.000 C 
ENDBRANCH  19  26
ENDBRANCH  17  22
ENDBRANCH  16  17
ENDBRANCH   1  16
TORSDOF 7
ENDMDL
MODEL 9
REMARK VINA RESULT:    -6.246      5.015      8.211
REMARK INTER + INTRA:          -9.530
REMARK INTER:                  -8.788
REMARK INTRA:                  -0.742
REMARK UNBOUND:                -0.911
REMARK  Name = 
REMARK  7 active torsions:
REMARK  status: ('A' for Active; 'I' for Inactive)
REMARK    1  A    between atoms: C_2  and  C_3
REMARK    2  A    between atoms: C_6  and  N_7
REMARK    3  A    between atoms: N_7  and  C_8
REMARK    4  A    between atoms: C_8  and  C_9
REMARK    5  A    between atoms: C_9  and  O_10
REMARK    6  A    between atoms: C_9  and  C_11
REMARK    7  A    between atoms: C_15  and  C_16
REMARK                            x       y       z     vdW  Elec       q    Type
REMARK                         _______ _______ _______ _____ _____    ______ ____
ROOT
ATOM      1  C   UNL     1      48.702   7.599  13.317  0.00  0.00    +0.000 C 
ENDROOT
BRANCH   1   2
ATOM      2  C   UNL     1      47.357   7.561  12.603  0.00  0.00    +0.000 A 
ATOM      3  C   UNL     1      46.402   8.551  12.855  0.00  0.00    +0.000 A 
ATOM      4  C   UNL     1      45.130   8.456  12.294  0.00  0.00    +0.000 A 
ATOM      5  C   UNL     1      44.790   7.360  11.494  0.00  0.00    +0.000 A 
ATOM      6  C   UNL     1      45.722   6.349  11.201  0.00  0.00    +0.000 A 
ATOM      7  C   UNL     1      47.014   6.498  11.746  0.00  0.00    +0.000 A 
BRANCH   6   8
ATOM      8  C   UNL     1      45.354   5.151  10.406  0.00  0.00    +0.000 A 
ATOM      9  C   UNL     1      44.648   4.072  10.970  0.00  0.00    +0.000 A 
ATOM     10  C   UNL     1      44.347   2.925  10.225  0.00  0.00    +0.000 A 
ATOM     11  C   UNL     1      44.731   2.835   8.891  0.00  0.00    +0.000 A 
ATOM     12  C   UNL     1      45.415   3.892   8.301  0.00  0.00    +0.000 A 
ATOM     13  C   UNL     1      45.728   5.029   9.053  0.00  0.00    +0.000 A 
ENDBRANCH   6   8
ENDBRANCH   1   2
BRANCH   1  14
ATOM     14  O   UNL     1      49.543   6.534  12.868  0.00  0.00    +0.000 OA
ATOM     15  H   UNL     1      50.314   6.487  13.455  0.00  0.00    +0.000 HD
ENDBRANCH   1  14
BRANCH   1  16
ATOM     16  C   UNL     1      48.495   7.514  14.848  0.00  0.00    +0.000 C 
BRANCH  16  17
ATOM     17  N   UNL     1      48.288   6.154  15.314  0.00  0.00    +0.000 N 
ATOM     18  H   UNL     1      47.824   5.480  14.711  0.00  0.00    +0.000 HD
BRANCH  17  22
ATOM     19  C   UNL     1      48.472   5.169  19.279  0.00  0.00    +0.000 A 
ATOM     20  C   UNL     1      48.829   6.420  18.810  0.00  0.00    +0.000 A 
ATOM     21  N   UNL     1      48.804   6.747  17.487  0.00  0.00    +0.000 NA
ATOM     22  C   UNL     1      48.392   5.789  16.633  0.00  0.00    +0.000 A 
ATOM     23  C   UNL     1      48.047   4.527  17.130  0.00  0.00    +0.000 A 
ATOM     24  N   UNL     1      48.082   4.181  18.443  0.00  0.00    +0.000 NA
BRANCH  19  26
ATOM     25  N   UNL     1      48.484   4.654  21.822  0.00  0.00    +0.000 NA
ATOM     26  C   UNL     1      48.473   4.870  20.679  0.00  0.00    +0.000 C 
ENDBRANCH  19  26
ENDBRANCH  17  22
ENDBRANCH  16  17
ENDBRANCH   1  16
TORSDOF 7
ENDMDL
