MODEL 1
REMARK VINA RESULT:    -8.091      0.000      0.000
REMARK INTER + INTRA:         -12.956
REMARK INTER:                 -11.639
REMARK INTRA:                  -1.317
REMARK UNBOUND:                -1.317
REMARK  Name = 
REMARK  9 active torsions:
REMARK  status: ('A' for Active; 'I' for Inactive)
REMARK    1  A    between atoms: C_1  and  N_2
REMARK    2  A    between atoms: C_4  and  C_5
REMARK    3  A    between atoms: N_7  and  C_8
REMARK    4  A    between atoms: C_8  and  C_9
REMARK    5  A    between atoms: C_12  and  C_13
REMARK    6  A    between atoms: C_13  and  O_14
REMARK    7  A    between atoms: O_14  and  C_15
REMARK    8  A    between atoms: C_15  and  C_16
REMARK    9  A    between atoms: C_26  and  O_27
REMARK                            x       y       z     vdW  Elec       q    Type
REMARK                         _______ _______ _______ _____ _____    ______ ____
ROOT
ATOM      1  C   UNL     1      47.934   7.124  13.316  0.00  0.00    +0.000 C 
ENDROOT
BRANCH   1   2
ATOM      2  C   UNL     1      46.743   6.361  12.803  0.00  0.00    +0.000 A 
ATOM      3  C   UNL     1      46.169   5.336  13.566  0.00  0.00    +0.000 A 
ATOM      4  C   UNL     1      45.062   4.630  13.088  0.00  0.00    +0.000 A 
ATOM      5  C   UNL     1      44.516   4.924  11.832  0.00  0.00    +0.000 A 
ATOM      6  C   UNL     1      45.101   5.939  11.062  0.00  0.00    +0.000 A 
ATOM      7  C   UNL     1      46.206   6.647  11.541  0.00  0.00    +0.000 A 
BRANCH   5   8
ATOM      8  C   UNL     1      43.333   4.152  11.307  0.00  0.00    +0.000 C 
BRANCH   8   9
ATOM      9  O   UNL     1      43.598   3.727   9.973  0.00  0.00    +0.000 OA
BRANCH   9  10
ATOM     10  C   UNL     1      44.387   2.537   9.958  0.00  0.00    +0.000 C 
BRANCH  10  11
ATOM     11  C   UNL     1      45.299   2.520   8.755  0.00  0.00    +0.000 A 
ATOM     12  C   UNL     1      45.542   3.679   8.004  0.00  0.00    +0.000 A 
ATOM     13  C   UNL     1      46.410   3.650   6.910  0.00  0.00    +0.000 A 
ATOM     14  C   UNL     1      47.051   2.462   6.567  0.00  0.00    +0.000 A 
ATOM     15 CL   UNL     1      48.115   2.422   5.216  0.00  0.00    +0.000 Cl
ATOM     16  C   UNL     1      46.838   1.306   7.314  0.00  0.00    +0.000 A 
ATOM     17  C   UNL     1      45.971   1.336   8.408  0.00  0.00    +0.000 A 
ENDBRANCH  10  11
ENDBRANCH   9  10
ENDBRANCH   8   9
ENDBRANCH   5   8
ENDBRANCH   1   2
BRANCH   1  20
ATOM     18  C   UNL     1      48.938   6.983  15.545  0.00  0.00    +0.000 C 
ATOM     19  O   UNL     1      49.993   6.541  15.099  0.00  0.00    +0.000 OA
ATOM     20  N   UNL     1      47.867   7.299  14.745  0.00  0.00    +0.000 N 
ATOM     21  H   UNL     1      47.013   7.656  15.147  0.00  0.00    +0.000 HD
BRANCH  18  25
ATOM     22  C   UNL     1      48.101   9.125  19.995  0.00  0.00    +0.000 C 
ATOM     23  N   UNL     1      48.389   8.147  18.973  0.00  0.00    +0.000 N 
ATOM     24  C   UNL     1      48.466   8.396  17.625  0.00  0.00    +0.000 A 
ATOM     25  C   UNL     1      48.761   7.203  16.976  0.00  0.00    +0.000 A 
ATOM     26  C   UNL     1      48.862   6.198  17.998  0.00  0.00    +0.000 A 
ATOM     27  C   UNL     1      49.128   4.826  18.069  0.00  0.00    +0.000 A 
ATOM     28  N   UNL     1      49.140   4.194  19.256  0.00  0.00    +0.000 NA
ATOM     29  C   UNL     1      48.893   4.926  20.354  0.00  0.00    +0.000 A 
ATOM     30  N   UNL     1      48.627   6.242  20.429  0.00  0.00    +0.000 NA
ATOM     31  C   UNL     1      48.626   6.821  19.216  0.00  0.00    +0.000 A 
BRANCH  27  32
ATOM     32  O   UNL     1      49.387   4.030  16.981  0.00  0.00    +0.000 OA
ATOM     33  H   UNL     1      49.129   4.527  16.179  0.00  0.00    +0.000 HD
ENDBRANCH  27  32
ENDBRANCH  18  25
ENDBRANCH   1  20
TORSDOF 8
ENDMDL
MODEL 2
REMARK VINA RESULT:    -7.989      0.987      2.462
REMARK INTER + INTRA:         -12.808
REMARK INTER:                 -11.592
REMARK INTRA:                  -1.217
REMARK UNBOUND:                -1.317
REMARK  Name = 
REMARK  9 active torsions:
REMARK  status: ('A' for Active; 'I' for Inactive)
REMARK    1  A    between atoms: C_1  and  N_2
REMARK    2  A    between atoms: C_4  and  C_5
REMARK    3  A    between atoms: N_7  and  C_8
REMARK    4  A    between atoms: C_8  and  C_9
REMARK    5  A    between atoms: C_12  and  C_13
REMARK    6  A    between atoms: C_13  and  O_14
REMARK    7  A    between atoms: O_14  and  C_15
REMARK    8  A    between atoms: C_15  and  C_16
REMARK    9  A    between atoms: C_26  and  O_27
REMARK                            x       y       z     vdW  Elec       q    Type
REMARK                         _______ _______ _______ _____ _____    ______ ____
ROOT
ATOM      1  C   UNL     1      48.187   6.643  13.738  0.00  0.00    +0.000 C 
ENDROOT
BRANCH   1   2
ATOM      2  C   UNL     1      46.944   6.113  13.076  0.00  0.00    +0.000 A 
ATOM      3  C   UNL     1      46.497   6.652  11.862  0.00  0.00    +0.000 A 
ATOM      4  C   UNL     1      45.343   6.158  11.249  0.00  0.00    +0.000 A 
ATOM      5  C   UNL     1      44.604   5.126  11.843  0.00  0.00    +0.000 A 
ATOM      6  C   UNL     1      45.044   4.599  13.065  0.00  0.00    +0.000 A 
ATOM      7  C   UNL     1      46.199   5.091  13.678  0.00  0.00    +0.000 A 
BRANCH   5   8
ATOM      8  C   UNL     1      43.350   4.604  11.191  0.00  0.00    +0.000 C 
BRANCH   8   9
ATOM      9  O   UNL     1      43.673   4.041   9.924  0.00  0.00    +0.000 OA
BRANCH   9  10
ATOM     10  C   UNL     1      44.476   2.869  10.068  0.00  0.00    +0.000 C 
BRANCH  10  11
ATOM     11  C   UNL     1      45.415   2.721   8.896  0.00  0.00    +0.000 A 
ATOM     12  C   UNL     1      45.923   1.468   8.519  0.00  0.00    +0.000 A 
ATOM     13  C   UNL     1      46.769   1.346   7.415  0.00  0.00    +0.000 A 
ATOM     14  C   UNL     1      47.104   2.475   6.671  0.00  0.00    +0.000 A 
ATOM     15 CL   UNL     1      48.152   2.328   5.315  0.00  0.00    +0.000 Cl
ATOM     16  C   UNL     1      46.592   3.723   7.017  0.00  0.00    +0.000 A 
ATOM     17  C   UNL     1      45.745   3.845   8.121  0.00  0.00    +0.000 A 
ENDBRANCH  10  11
ENDBRANCH   9  10
ENDBRANCH   8   9
ENDBRANCH   5   8
ENDBRANCH   1   2
BRANCH   1  20
ATOM     18  C   UNL     1      49.207   6.551  15.962  0.00  0.00    +0.000 C 
ATOM     19  O   UNL     1      50.344   6.577  15.499  0.00  0.00    +0.000 OA
ATOM     20  N   UNL     1      48.082   6.579  15.174  0.00  0.00    +0.000 N 
ATOM     21  H   UNL     1      47.163   6.551  15.589  0.00  0.00    +0.000 HD
BRANCH  18  25
ATOM     22  C   UNL     1      49.097   5.017  20.729  0.00  0.00    +0.000 C 
ATOM     23  N   UNL     1      48.928   5.815  19.537  0.00  0.00    +0.000 N 
ATOM     24  C   UNL     1      49.320   5.457  18.272  0.00  0.00    +0.000 A 
ATOM     25  C   UNL     1      48.984   6.488  17.402  0.00  0.00    +0.000 A 
ATOM     26  C   UNL     1      48.360   7.506  18.200  0.00  0.00    +0.000 A 
ATOM     27  C   UNL     1      47.792   8.769  17.997  0.00  0.00    +0.000 A 
ATOM     28  N   UNL     1      47.282   9.463  19.030  0.00  0.00    +0.000 NA
ATOM     29  C   UNL     1      47.338   8.898  20.247  0.00  0.00    +0.000 A 
ATOM     30  N   UNL     1      47.848   7.700  20.581  0.00  0.00    +0.000 NA
ATOM     31  C   UNL     1      48.344   7.052  19.512  0.00  0.00    +0.000 A 
BRANCH  27  32
ATOM     32  O   UNL     1      47.709   9.394  16.777  0.00  0.00    +0.000 OA
ATOM     33  H   UNL     1      47.225   8.800  16.170  0.00  0.00    +0.000 HD
ENDBRANCH  27  32
ENDBRANCH  18  25
ENDBRANCH   1  20
TORSDOF 8
ENDMDL
MODEL 3
REMARK VINA RESULT:    -7.642      3.570      5.656
REMARK INTER + INTRA:         -12.309
REMARK INTER:                 -11.570
REMARK INTRA:                  -0.739
REMARK UNBOUND:                -1.317
REMARK  Name = 
REMARK  9 active torsions:
REMARK  status: ('A' for Active; 'I' for Inactive)
REMARK    1  A    between atoms: C_1  and  N_2
REMARK    2  A    between atoms: C_4  and  C_5
REMARK    3  A    between atoms: N_7  and  C_8
REMARK    4  A    between atoms: C_8  and  C_9
REMARK    5  A    between atoms: C_12  and  C_13
REMARK    6  A    between atoms: C_13  and  O_14
REMARK    7  A    between atoms: O_14  and  C_15
REMARK    8  A    between atoms: C_15  and  C_16
REMARK    9  A    between atoms: C_26  and  O_27
REMARK                            x       y       z     vdW  Elec       q    Type
REMARK                         _______ _______ _______ _____ _____    ______ ____
ROOT
ATOM      1  C   UNL     1      47.708   6.332  14.002  0.00  0.00    +0.000 C 
ENDROOT
BRANCH   1   2
ATOM      2  C   UNL     1      46.588   5.451  13.519  0.00  0.00    +0.000 A 
ATOM      3  C   UNL     1      46.806   4.088  13.279  0.00  0.00    +0.000 A 
ATOM      4  C   UNL     1      45.764   3.272  12.830  0.00  0.00    +0.000 A 
ATOM      5  C   UNL     1      44.488   3.803  12.601  0.00  0.00    +0.000 A 
ATOM      6  C   UNL     1      44.276   5.171  12.826  0.00  0.00    +0.000 A 
ATOM      7  C   UNL     1      45.317   5.987  13.276  0.00  0.00    +0.000 A 
BRANCH   5   8
ATOM      8  C   UNL     1      43.368   2.928  12.101  0.00  0.00    +0.000 C 
BRANCH   8   9
ATOM      9  O   UNL     1      43.680   2.459  10.793  0.00  0.00    +0.000 OA
BRANCH   9  10
ATOM     10  C   UNL     1      43.974   3.544   9.913  0.00  0.00    +0.000 C 
BRANCH  10  11
ATOM     11  C   UNL     1      45.044   3.149   8.923  0.00  0.00    +0.000 A 
ATOM     12  C   UNL     1      45.489   1.823   8.816  0.00  0.00    +0.000 A 
ATOM     13  C   UNL     1      46.459   1.472   7.875  0.00  0.00    +0.000 A 
ATOM     14  C   UNL     1      46.983   2.444   7.026  0.00  0.00    +0.000 A 
ATOM     15 CL   UNL     1      48.185   2.015   5.872  0.00  0.00    +0.000 Cl
ATOM     16  C   UNL     1      46.538   3.760   7.103  0.00  0.00    +0.000 A 
ATOM     17  C   UNL     1      45.566   4.111   8.043  0.00  0.00    +0.000 A 
ENDBRANCH  10  11
ENDBRANCH   9  10
ENDBRANCH   8   9
ENDBRANCH   5   8
ENDBRANCH   1   2
BRANCH   1  20
ATOM     18  C   UNL     1      48.002   8.073  12.306  0.00  0.00    +0.000 C 
ATOM     19  O   UNL     1      48.570   7.302  11.537  0.00  0.00    +0.000 OA
ATOM     20  N   UNL     1      47.543   7.688  13.542  0.00  0.00    +0.000 N 
ATOM     21  H   UNL     1      47.085   8.350  14.149  0.00  0.00    +0.000 HD
BRANCH  18  25
ATOM     22  C   UNL     1      48.710  12.832  10.914  0.00  0.00    +0.000 C 
ATOM     23  N   UNL     1      48.080  11.598  11.320  0.00  0.00    +0.000 N 
ATOM     24  C   UNL     1      48.728  10.417  11.582  0.00  0.00    +0.000 A 
ATOM     25  C   UNL     1      47.778   9.467  11.942  0.00  0.00    +0.000 A 
ATOM     26  C   UNL     1      46.504  10.128  11.889  0.00  0.00    +0.000 A 
ATOM     27  C   UNL     1      45.163   9.797  12.120  0.00  0.00    +0.000 A 
ATOM     28  N   UNL     1      44.196  10.718  11.962  0.00  0.00    +0.000 NA
ATOM     29  C   UNL     1      44.567  11.951  11.581  0.00  0.00    +0.000 A 
ATOM     30  N   UNL     1      45.808  12.402  11.329  0.00  0.00    +0.000 NA
ATOM     31  C   UNL     1      46.733  11.441  11.501  0.00  0.00    +0.000 A 
BRANCH  27  32
ATOM     32  O   UNL     1      44.728   8.554  12.510  0.00  0.00    +0.000 OA
ATOM     33  H   UNL     1      44.064   8.252  11.859  0.00  0.00    +0.000 HD
ENDBRANCH  27  32
ENDBRANCH  18  25
ENDBRANCH   1  20
TORSDOF 8
ENDMDL
MODEL 4
REMARK VINA RESULT:    -7.296      2.015      2.583
REMARK INTER + INTRA:         -11.811
REMARK INTER:                 -10.447
REMARK INTRA:                  -1.365
REMARK UNBOUND:                -1.317
REMARK  Name = 
REMARK  9 active torsions:
REMARK  status: ('A' for Active; 'I' for Inactive)
REMARK    1  A    between atoms: C_1  and  N_2
REMARK    2  A    between atoms: C_4  and  C_5
REMARK    3  A    between atoms: N_7  and  C_8
REMARK    4  A    between atoms: C_8  and  C_9
REMARK    5  A    between atoms: C_12  and  C_13
REMARK    6  A    between atoms: C_13  and  O_14
REMARK    7  A    between atoms: O_14  and  C_15
REMARK    8  A    between atoms: C_15  and  C_16
REMARK    9  A    between atoms: C_26  and  O_27
REMARK                            x       y       z     vdW  Elec       q    Type
REMARK                         _______ _______ _______ _____ _____    ______ ____
ROOT
ATOM      1  C   UNL     1      48.210   7.904  12.789  0.00  0.00    +0.000 C 
ENDROOT
BRANCH   1   2
ATOM      2  C   UNL     1      47.024   6.979  12.795  0.00  0.00    +0.000 A 
ATOM      3  C   UNL     1      45.748   7.452  12.462  0.00  0.00    +0.000 A 
ATOM      4  C   UNL     1      44.648   6.591  12.467  0.00  0.00    +0.000 A 
ATOM      5  C   UNL     1      44.798   5.242  12.818  0.00  0.00    +0.000 A 
ATOM      6  C   UNL     1      46.072   4.774  13.167  0.00  0.00    +0.000 A 
ATOM      7  C   UNL     1      47.173   5.634  13.160  0.00  0.00    +0.000 A 
BRANCH   5   8
ATOM      8  C   UNL     1      43.610   4.316  12.841  0.00  0.00    +0.000 C 
BRANCH   8   9
ATOM      9  O   UNL     1      43.768   3.318  11.838  0.00  0.00    +0.000 OA
BRANCH   9  10
ATOM     10  C   UNL     1      43.449   3.830  10.545  0.00  0.00    +0.000 C 
BRANCH  10  11
ATOM     11  C   UNL     1      44.506   3.437   9.541  0.00  0.00    +0.000 A 
ATOM     12  C   UNL     1      45.241   4.403   8.837  0.00  0.00    +0.000 A 
ATOM     13  C   UNL     1      46.235   4.021   7.933  0.00  0.00    +0.000 A 
ATOM     14  C   UNL     1      46.509   2.670   7.736  0.00  0.00    +0.000 A 
ATOM     15 CL   UNL     1      47.727   2.197   6.616  0.00  0.00    +0.000 Cl
ATOM     16  C   UNL     1      45.805   1.698   8.442  0.00  0.00    +0.000 A 
ATOM     17  C   UNL     1      44.811   2.081   9.347  0.00  0.00    +0.000 A 
ENDBRANCH  10  11
ENDBRANCH   9  10
ENDBRANCH   8   9
ENDBRANCH   5   8
ENDBRANCH   1   2
BRANCH   1  20
ATOM     18  C   UNL     1      49.328   7.655  14.953  0.00  0.00    +0.000 C 
ATOM     19  O   UNL     1      48.483   8.335  15.528  0.00  0.00    +0.000 OA
ATOM     20  N   UNL     1      49.279   7.389  13.607  0.00  0.00    +0.000 N 
ATOM     21  H   UNL     1      49.995   6.829  13.167  0.00  0.00    +0.000 HD
BRANCH  18  25
ATOM     22  C   UNL     1      53.950   6.576  16.555  0.00  0.00    +0.000 C 
ATOM     23  N   UNL     1      52.513   6.588  16.410  0.00  0.00    +0.000 N 
ATOM     24  C   UNL     1      51.806   7.350  15.514  0.00  0.00    +0.000 A 
ATOM     25  C   UNL     1      50.452   7.081  15.683  0.00  0.00    +0.000 A 
ATOM     26  C   UNL     1      50.361   6.108  16.737  0.00  0.00    +0.000 A 
ATOM     27  C   UNL     1      49.350   5.407  17.405  0.00  0.00    +0.000 A 
ATOM     28  N   UNL     1      49.655   4.537  18.384  0.00  0.00    +0.000 NA
ATOM     29  C   UNL     1      50.953   4.370  18.686  0.00  0.00    +0.000 A 
ATOM     30  N   UNL     1      52.017   4.972  18.128  0.00  0.00    +0.000 NA
ATOM     31  C   UNL     1      51.654   5.830  17.158  0.00  0.00    +0.000 A 
BRANCH  27  32
ATOM     32  O   UNL     1      48.009   5.538  17.137  0.00  0.00    +0.000 OA
ATOM     33  H   UNL     1      47.903   5.594  16.167  0.00  0.00    +0.000 HD
ENDBRANCH  27  32
ENDBRANCH  18  25
ENDBRANCH   1  20
TORSDOF 8
ENDMDL
MODEL 5
REMARK VINA RESULT:    -7.183      3.793      6.100
REMARK INTER + INTRA:         -11.648
REMARK INTER:                 -10.448
REMARK INTRA:                  -1.201
REMARK UNBOUND:                -1.317
REMARK  Name = 
REMARK  9 active torsions:
REMARK  status: ('A' for Active; 'I' for Inactive)
REMARK    1  A    between atoms: C_1  and  N_2
REMARK    2  A    between atoms: C_4  and  C_5
REMARK    3  A    between atoms: N_7  and  C_8
REMARK    4  A    between atoms: C_8  and  C_9
REMARK    5  A    between atoms: C_12  and  C_13
REMARK    6  A    between atoms: C_13  and  O_14
REMARK    7  A    between atoms: O_14  and  C_15
REMARK    8  A    between atoms: C_15  and  C_16
REMARK    9  A    between atoms: C_26  and  O_27
REMARK                            x       y       z     vdW  Elec       q    Type
REMARK                         _______ _______ _______ _____ _____    ______ ____
ROOT
ATOM      1  C   UNL     1      48.475   6.714  13.481  0.00  0.00    +0.000 C 
ENDROOT
BRANCH   1   2
ATOM      2  C   UNL     1      47.097   6.152  13.254  0.00  0.00    +0.000 A 
ATOM      3  C   UNL     1      46.035   6.991  12.895  0.00  0.00    +0.000 A 
ATOM      4  C   UNL     1      44.757   6.467  12.684  0.00  0.00    +0.000 A 
ATOM      5  C   UNL     1      44.512   5.096  12.842  0.00  0.00    +0.000 A 
ATOM      6  C   UNL     1      45.573   4.261  13.218  0.00  0.00    +0.000 A 
ATOM      7  C   UNL     1      46.851   4.784  13.427  0.00  0.00    +0.000 A 
BRANCH   5   8
ATOM      8  C   UNL     1      43.131   4.532  12.632  0.00  0.00    +0.000 C 
BRANCH   8   9
ATOM      9  O   UNL     1      43.095   3.811  11.405  0.00  0.00    +0.000 OA
BRANCH   9  10
ATOM     10  C   UNL     1      43.567   4.611  10.322  0.00  0.00    +0.000 C 
BRANCH  10  11
ATOM     11  C   UNL     1      44.499   3.815   9.440  0.00  0.00    +0.000 A 
ATOM     12  C   UNL     1      45.334   4.443   8.504  0.00  0.00    +0.000 A 
ATOM     13  C   UNL     1      46.210   3.693   7.715  0.00  0.00    +0.000 A 
ATOM     14  C   UNL     1      46.265   2.309   7.867  0.00  0.00    +0.000 A 
ATOM     15 CL   UNL     1      47.337   1.383   6.891  0.00  0.00    +0.000 Cl
ATOM     16  C   UNL     1      45.459   1.671   8.806  0.00  0.00    +0.000 A 
ATOM     17  C   UNL     1      44.583   2.422   9.595  0.00  0.00    +0.000 A 
ENDBRANCH  10  11
ENDBRANCH   9  10
ENDBRANCH   8   9
ENDBRANCH   5   8
ENDBRANCH   1   2
BRANCH   1  20
ATOM     18  C   UNL     1      49.832   8.617  12.752  0.00  0.00    +0.000 C 
ATOM     19  O   UNL     1      50.582   8.520  13.720  0.00  0.00    +0.000 OA
ATOM     20  N   UNL     1      48.767   7.775  12.550  0.00  0.00    +0.000 N 
ATOM     21  H   UNL     1      48.169   7.887  11.745  0.00  0.00    +0.000 HD
BRANCH  18  25
ATOM     22  C   UNL     1      51.856  11.515   9.203  0.00  0.00    +0.000 C 
ATOM     23  N   UNL     1      50.928  10.957  10.158  0.00  0.00    +0.000 N 
ATOM     24  C   UNL     1      51.170   9.880  10.975  0.00  0.00    +0.000 A 
ATOM     25  C   UNL     1      50.036   9.653  11.746  0.00  0.00    +0.000 A 
ATOM     26  C   UNL     1      49.076  10.649  11.360  0.00  0.00    +0.000 A 
ATOM     27  C   UNL     1      47.769  11.009  11.710  0.00  0.00    +0.000 A 
ATOM     28  N   UNL     1      47.163  12.048  11.109  0.00  0.00    +0.000 NA
ATOM     29  C   UNL     1      47.856  12.717  10.174  0.00  0.00    +0.000 A 
ATOM     30  N   UNL     1      49.109  12.483   9.746  0.00  0.00    +0.000 NA
ATOM     31  C   UNL     1      49.665  11.435  10.379  0.00  0.00    +0.000 A 
BRANCH  27  32
ATOM     32  O   UNL     1      47.014  10.361  12.657  0.00  0.00    +0.000 OA
ATOM     33  H   UNL     1      47.516  10.372  13.497  0.00  0.00    +0.000 HD
ENDBRANCH  27  32
ENDBRANCH  18  25
ENDBRANCH   1  20
TORSDOF 8
ENDMDL
MODEL 6
REMARK VINA RESULT:    -7.025      3.884      5.988
REMARK INTER + INTRA:         -11.421
REMARK INTER:                 -10.126
REMARK INTRA:                  -1.295
REMARK UNBOUND:                -1.317
REMARK  Name = 
REMARK  9 active torsions:
REMARK  status: ('A' for Active; 'I' for Inactive)
REMARK    1  A    between atoms: C_1  and  N_2
REMARK    2  A    between atoms: C_4  and  C_5
REMARK    3  A    between atoms: N_7  and  C_8
REMARK    4  A    between atoms: C_8  and  C_9
REMARK    5  A    between atoms: C_12  and  C_13
REMARK    6  A    between atoms: C_13  and  O_14
REMARK    7  A    between atoms: O_14  and  C_15
REMARK    8  A    between atoms: C_15  and  C_16
REMARK    9  A    between atoms: C_26  and  O_27
REMARK                            x       y       z     vdW  Elec       q    Type
REMARK                         _______ _______ _______ _____ _____    ______ ____
ROOT
ATOM      1  C   UNL     1      48.266   7.137  13.392  0.00  0.00    +0.000 C 
ENDROOT
BRANCH   1   2
ATOM      2  C   UNL     1      46.936   6.639  12.896  0.00  0.00    +0.000 A 
ATOM      3  C   UNL     1      46.293   7.268  11.822  0.00  0.00    +0.000 A 
ATOM      4  C   UNL     1      45.058   6.804  11.364  0.00  0.00    +0.000 A 
ATOM      5  C   UNL     1      44.434   5.709  11.978  0.00  0.00    +0.000 A 
ATOM      6  C   UNL     1      45.070   5.091  13.063  0.00  0.00    +0.000 A 
ATOM      7  C   UNL     1      46.306   5.554  13.520  0.00  0.00    +0.000 A 
BRANCH   5   8
ATOM      8  C   UNL     1      43.093   5.218  11.496  0.00  0.00    +0.000 C 
BRANCH   8   9
ATOM      9  O   UNL     1      43.256   4.538  10.255  0.00  0.00    +0.000 OA
BRANCH   9  10
ATOM     10  C   UNL     1      43.970   3.314  10.426  0.00  0.00    +0.000 C 
BRANCH  10  11
ATOM     11  C   UNL     1      44.927   3.092   9.279  0.00  0.00    +0.000 A 
ATOM     12  C   UNL     1      45.454   4.166   8.547  0.00  0.00    +0.000 A 
ATOM     13  C   UNL     1      46.359   3.943   7.507  0.00  0.00    +0.000 A 
ATOM     14  C   UNL     1      46.754   2.643   7.201  0.00  0.00    +0.000 A 
ATOM     15 CL   UNL     1      47.863   2.365   5.915  0.00  0.00    +0.000 Cl
ATOM     16  C   UNL     1      46.259   1.566   7.931  0.00  0.00    +0.000 A 
ATOM     17  C   UNL     1      45.354   1.790   8.972  0.00  0.00    +0.000 A 
ENDBRANCH  10  11
ENDBRANCH   9  10
ENDBRANCH   8   9
ENDBRANCH   5   8
ENDBRANCH   1   2
BRANCH   1  20
ATOM     18  C   UNL     1      49.294   9.253  12.712  0.00  0.00    +0.000 C 
ATOM     19  O   UNL     1      49.110   9.758  13.816  0.00  0.00    +0.000 OA
ATOM     20  N   UNL     1      48.913   7.969  12.408  0.00  0.00    +0.000 N 
ATOM     21  H   UNL     1      49.076   7.588  11.489  0.00  0.00    +0.000 HD
BRANCH  18  25
ATOM     22  C   UNL     1      50.303  12.664   9.186  0.00  0.00    +0.000 C 
ATOM     23  N   UNL     1      50.406  11.521  10.062  0.00  0.00    +0.000 N 
ATOM     24  C   UNL     1      49.482  11.151  11.008  0.00  0.00    +0.000 A 
ATOM     25  C   UNL     1      49.942  10.003  11.642  0.00  0.00    +0.000 A 
ATOM     26  C   UNL     1      51.204   9.681  11.035  0.00  0.00    +0.000 A 
ATOM     27  C   UNL     1      52.187   8.694  11.169  0.00  0.00    +0.000 A 
ATOM     28  N   UNL     1      53.285   8.715  10.392  0.00  0.00    +0.000 NA
ATOM     29  C   UNL     1      53.394   9.708   9.495  0.00  0.00    +0.000 A 
ATOM     30  N   UNL     1      52.530  10.712   9.262  0.00  0.00    +0.000 NA
ATOM     31  C   UNL     1      51.454  10.641  10.065  0.00  0.00    +0.000 A 
BRANCH  27  32
ATOM     32  O   UNL     1      52.128   7.657  12.068  0.00  0.00    +0.000 OA
ATOM     33  H   UNL     1      51.352   7.806  12.644  0.00  0.00    +0.000 HD
ENDBRANCH  27  32
ENDBRANCH  18  25
ENDBRANCH   1  20
TORSDOF 8
ENDMDL
MODEL 7
REMARK VINA RESULT:    -6.915      2.592      3.819
REMARK INTER + INTRA:         -11.264
REMARK INTER:                 -10.230
REMARK INTRA:                  -1.034
REMARK UNBOUND:                -1.317
REMARK  Name = 
REMARK  9 active torsions:
REMARK  status: ('A' for Active; 'I' for Inactive)
REMARK    1  A    between atoms: C_1  and  N_2
REMARK    2  A    between atoms: C_4  and  C_5
REMARK    3  A    between atoms: N_7  and  C_8
REMARK    4  A    between atoms: C_8  and  C_9
REMARK    5  A    between atoms: C_12  and  C_13
REMARK    6  A    between atoms: C_13  and  O_14
REMARK    7  A    between atoms: O_14  and  C_15
REMARK    8  A    between atoms: C_15  and  C_16
REMARK    9  A    between atoms: C_26  and  O_27
REMARK                            x       y       z     vdW  Elec       q    Type
REMARK                         _______ _______ _______ _____ _____    ______ ____
ROOT
ATOM      1  C   UNL     1      47.423   7.948  13.213  0.00  0.00    +0.000 C 
ENDROOT
BRANCH   1   2
ATOM      2  C   UNL     1      46.461   6.803  13.040  0.00  0.00    +0.000 A 
ATOM      3  C   UNL     1      45.117   7.042  12.729  0.00  0.00    +0.000 A 
ATOM      4  C   UNL     1      44.226   5.978  12.569  0.00  0.00    +0.000 A 
ATOM      5  C   UNL     1      44.658   4.654  12.730  0.00  0.00    +0.000 A 
ATOM      6  C   UNL     1      46.000   4.418  13.058  0.00  0.00    +0.000 A 
ATOM      7  C   UNL     1      46.892   5.482  13.216  0.00  0.00    +0.000 A 
BRANCH   5   8
ATOM      8  C   UNL     1      43.695   3.506  12.574  0.00  0.00    +0.000 C 
BRANCH   8   9
ATOM      9  O   UNL     1      43.955   2.832  11.347  0.00  0.00    +0.000 OA
BRANCH   9  10
ATOM     10  C   UNL     1      43.940   3.741  10.246  0.00  0.00    +0.000 C 
BRANCH  10  11
ATOM     11  C   UNL     1      44.961   3.336   9.209  0.00  0.00    +0.000 A 
ATOM     12  C   UNL     1      45.344   1.997   9.043  0.00  0.00    +0.000 A 
ATOM     13  C   UNL     1      46.270   1.638   8.061  0.00  0.00    +0.000 A 
ATOM     14  C   UNL     1      46.809   2.616   7.228  0.00  0.00    +0.000 A 
ATOM     15 CL   UNL     1      47.955   2.177   6.023  0.00  0.00    +0.000 Cl
ATOM     16  C   UNL     1      46.424   3.947   7.364  0.00  0.00    +0.000 A 
ATOM     17  C   UNL     1      45.498   4.305   8.347  0.00  0.00    +0.000 A 
ENDBRANCH  10  11
ENDBRANCH   9  10
ENDBRANCH   8   9
ENDBRANCH   5   8
ENDBRANCH   1   2
BRANCH   1  20
ATOM     18  C   UNL     1      48.982   7.810  15.096  0.00  0.00    +0.000 C 
ATOM     19  O   UNL     1      48.243   8.466  15.824  0.00  0.00    +0.000 OA
ATOM     20  N   UNL     1      48.665   7.505  13.795  0.00  0.00    +0.000 N 
ATOM     21  H   UNL     1      49.299   6.967  13.224  0.00  0.00    +0.000 HD
BRANCH  18  25
ATOM     22  C   UNL     1      52.491   5.383  17.720  0.00  0.00    +0.000 C 
ATOM     23  N   UNL     1      51.842   6.229  16.746  0.00  0.00    +0.000 N 
ATOM     24  C   UNL     1      50.489   6.431  16.636  0.00  0.00    +0.000 A 
ATOM     25  C   UNL     1      50.262   7.308  15.582  0.00  0.00    +0.000 A 
ATOM     26  C   UNL     1      51.553   7.639  15.044  0.00  0.00    +0.000 A 
ATOM     27  C   UNL     1      52.064   8.438  14.015  0.00  0.00    +0.000 A 
ATOM     28  N   UNL     1      53.390   8.505  13.797  0.00  0.00    +0.000 NA
ATOM     29  C   UNL     1      54.189   7.784  14.599  0.00  0.00    +0.000 A 
ATOM     30  N   UNL     1      53.835   6.983  15.619  0.00  0.00    +0.000 NA
ATOM     31  C   UNL     1      52.502   6.953  15.790  0.00  0.00    +0.000 A 
BRANCH  27  32
ATOM     32  O   UNL     1      51.294   9.194  13.165  0.00  0.00    +0.000 OA
ATOM     33  H   UNL     1      50.583   9.606  13.695  0.00  0.00    +0.000 HD
ENDBRANCH  27  32
ENDBRANCH  18  25
ENDBRANCH   1  20
TORSDOF 8
ENDMDL
MODEL 8
REMARK VINA RESULT:    -6.832      3.886      8.697
REMARK INTER + INTRA:         -11.144
REMARK INTER:                  -9.600
REMARK INTRA:                  -1.544
REMARK UNBOUND:                -1.317
REMARK  Name = 
REMARK  9 active torsions:
REMARK  status: ('A' for Active; 'I' for Inactive)
REMARK    1  A    between atoms: C_1  and  N_2
REMARK    2  A    between atoms: C_4  and  C_5
REMARK    3  A    between atoms: N_7  and  C_8
REMARK    4  A    between atoms: C_8  and  C_9
REMARK    5  A    between atoms: C_12  and  C_13
REMARK    6  A    between atoms: C_13  and  O_14
REMARK    7  A    between atoms: O_14  and  C_15
REMARK    8  A    between atoms: C_15  and  C_16
REMARK    9  A    between atoms: C_26  and  O_27
REMARK                            x       y       z     vdW  Elec       q    Type
REMARK                         _______ _______ _______ _____ _____    ______ ____
ROOT
ATOM      1  C   UNL     1      48.483   8.192  11.963  0.00  0.00    +0.000 C 
ENDROOT
BRANCH   1   2
ATOM      2  C   UNL     1      48.544   8.103  13.464  0.00  0.00    +0.000 A 
ATOM      3  C   UNL     1      48.242   9.217  14.258  0.00  0.00    +0.000 A 
ATOM      4  C   UNL     1      48.300   9.132  15.652  0.00  0.00    +0.000 A 
ATOM      5  C   UNL     1      48.672   7.935  16.279  0.00  0.00    +0.000 A 
ATOM      6  C   UNL     1      48.990   6.826  15.483  0.00  0.00    +0.000 A 
ATOM      7  C   UNL     1      48.931   6.911  14.090  0.00  0.00    +0.000 A 
BRANCH   5   8
ATOM      8  C   UNL     1      48.751   7.846  17.781  0.00  0.00    +0.000 C 
BRANCH   8   9
ATOM      9  O   UNL     1      47.505   7.384  18.295  0.00  0.00    +0.000 OA
BRANCH   9  10
ATOM     10  C   UNL     1      47.696   6.344  19.254  0.00  0.00    +0.000 C 
BRANCH  10  11
ATOM     11  C   UNL     1      48.305   5.126  18.603  0.00  0.00    +0.000 A 
ATOM     12  C   UNL     1      47.553   4.291  17.764  0.00  0.00    +0.000 A 
ATOM     13  C   UNL     1      48.141   3.184  17.148  0.00  0.00    +0.000 A 
ATOM     14  C   UNL     1      49.490   2.911  17.358  0.00  0.00    +0.000 A 
ATOM     15 CL   UNL     1      50.215   1.544  16.607  0.00  0.00    +0.000 Cl
ATOM     16  C   UNL     1      50.259   3.742  18.169  0.00  0.00    +0.000 A 
ATOM     17  C   UNL     1      49.670   4.850  18.784  0.00  0.00    +0.000 A 
ENDBRANCH  10  11
ENDBRANCH   9  10
ENDBRANCH   8   9
ENDBRANCH   5   8
ENDBRANCH   1   2
BRANCH   1  20
ATOM     18  C   UNL     1      46.390   7.067  11.374  0.00  0.00    +0.000 C 
ATOM     19  O   UNL     1      45.709   7.987  11.818  0.00  0.00    +0.000 OA
ATOM     20  N   UNL     1      47.763   7.077  11.402  0.00  0.00    +0.000 N 
ATOM     21  H   UNL     1      48.290   6.301  11.032  0.00  0.00    +0.000 HD
BRANCH  18  25
ATOM     22  C   UNL     1      44.916   3.552   8.124  0.00  0.00    +0.000 C 
ATOM     23  N   UNL     1      45.099   4.311   9.339  0.00  0.00    +0.000 N 
ATOM     24  C   UNL     1      45.833   5.465   9.459  0.00  0.00    +0.000 A 
ATOM     25  C   UNL     1      45.766   5.890  10.781  0.00  0.00    +0.000 A 
ATOM     26  C   UNL     1      44.948   4.934  11.474  0.00  0.00    +0.000 A 
ATOM     27  C   UNL     1      44.472   4.739  12.776  0.00  0.00    +0.000 A 
ATOM     28  N   UNL     1      43.693   3.682  13.067  0.00  0.00    +0.000 NA
ATOM     29  C   UNL     1      43.396   2.834  12.069  0.00  0.00    +0.000 A 
ATOM     30  N   UNL     1      43.781   2.901  10.783  0.00  0.00    +0.000 NA
ATOM     31  C   UNL     1      44.556   3.975  10.549  0.00  0.00    +0.000 A 
BRANCH  27  32
ATOM     32  O   UNL     1      44.744   5.572  13.833  0.00  0.00    +0.000 OA
ATOM     33  H   UNL     1      45.252   6.334  13.489  0.00  0.00    +0.000 HD
ENDBRANCH  27  32
ENDBRANCH  18  25
ENDBRANCH   1  20
TORSDOF 8
ENDMDL
MODEL 9
REMARK VINA RESULT:    -6.504      1.807      2.997
REMARK INTER + INTRA:         -10.672
REMARK INTER:                  -9.681
REMARK INTRA:                  -0.991
REMARK UNBOUND:                -1.317
REMARK  Name = 
REMARK  9 active torsions:
REMARK  status: ('A' for Active; 'I' for Inactive)
REMARK    1  A    between atoms: C_1  and  N_2
REMARK    2  A    between atoms: C_4  and  C_5
REMARK    3  A    between atoms: N_7  and  C_8
REMARK    4  A    between atoms: C_8  and  C_9
REMARK    5  A    between atoms: C_12  and  C_13
REMARK    6  A    between atoms: C_13  and  O_14
REMARK    7  A    between atoms: O_14  and  C_15
REMARK    8  A    between atoms: C_15  and  C_16
REMARK    9  A    between atoms: C_26  and  O_27
REMARK                            x       y       z     vdW  Elec       q    Type
REMARK                         _______ _______ _______ _____ _____    ______ ____
ROOT
ATOM      1  C   UNL     1      46.959   8.960  13.179  0.00  0.00    +0.000 C 
ENDROOT
BRANCH   1   2
ATOM      2  C   UNL     1      46.186   7.790  12.632  0.00  0.00    +0.000 A 
ATOM      3  C   UNL     1      46.656   6.482  12.803  0.00  0.00    +0.000 A 
ATOM      4  C   UNL     1      45.936   5.397  12.295  0.00  0.00    +0.000 A 
ATOM      5  C   UNL     1      44.739   5.600  11.595  0.00  0.00    +0.000 A 
ATOM      6  C   UNL     1      44.279   6.911  11.410  0.00  0.00    +0.000 A 
ATOM      7  C   UNL     1      44.997   7.995  11.920  0.00  0.00    +0.000 A 
BRANCH   5   8
ATOM      8  C   UNL     1      43.970   4.433  11.031  0.00  0.00    +0.000 C 
BRANCH   8   9
ATOM      9  O   UNL     1      44.839   3.312  10.899  0.00  0.00    +0.000 OA
BRANCH   9  10
ATOM     10  C   UNL     1      44.378   2.418   9.886  0.00  0.00    +0.000 C 
BRANCH  10  11
ATOM     11  C   UNL     1      45.329   2.408   8.713  0.00  0.00    +0.000 A 
ATOM     12  C   UNL     1      46.039   1.253   8.357  0.00  0.00    +0.000 A 
ATOM     13  C   UNL     1      46.894   1.254   7.252  0.00  0.00    +0.000 A 
ATOM     14  C   UNL     1      47.034   2.410   6.487  0.00  0.00    +0.000 A 
ATOM     15 CL   UNL     1      48.091   2.416   5.131  0.00  0.00    +0.000 Cl
ATOM     16  C   UNL     1      46.320   3.560   6.812  0.00  0.00    +0.000 A 
ATOM     17  C   UNL     1      45.465   3.557   7.917  0.00  0.00    +0.000 A 
ENDBRANCH  10  11
ENDBRANCH   9  10
ENDBRANCH   8   9
ENDBRANCH   5   8
ENDBRANCH   1   2
BRANCH   1  20
ATOM     18  C   UNL     1      48.664   8.722  14.919  0.00  0.00    +0.000 C 
ATOM     19  O   UNL     1      49.580   8.889  14.118  0.00  0.00    +0.000 OA
ATOM     20  N   UNL     1      47.342   8.739  14.550  0.00  0.00    +0.000 N 
ATOM     21  H   UNL     1      46.616   8.593  15.235  0.00  0.00    +0.000 HD
BRANCH  18  25
ATOM     22  C   UNL     1      48.898   6.663  19.479  0.00  0.00    +0.000 C 
ATOM     23  N   UNL     1      49.048   7.584  18.378  0.00  0.00    +0.000 N 
ATOM     24  C   UNL     1      48.601   7.380  17.096  0.00  0.00    +0.000 A 
ATOM     25  C   UNL     1      48.936   8.493  16.333  0.00  0.00    +0.000 A 
ATOM     26  C   UNL     1      49.618   9.399  17.215  0.00  0.00    +0.000 A 
ATOM     27  C   UNL     1      50.209  10.665  17.133  0.00  0.00    +0.000 A 
ATOM     28  N   UNL     1      50.776  11.226  18.216  0.00  0.00    +0.000 NA
ATOM     29  C   UNL     1      50.749  10.529  19.363  0.00  0.00    +0.000 A 
ATOM     30  N   UNL     1      50.217   9.314  19.582  0.00  0.00    +0.000 NA
ATOM     31  C   UNL     1      49.666   8.802  18.468  0.00  0.00    +0.000 A 
BRANCH  27  32
ATOM     32  O   UNL     1      50.265  11.421  15.987  0.00  0.00    +0.000 OA
ATOM     33  H   UNL     1      50.201  10.812  15.225  0.00  0.00    +0.000 HD
ENDBRANCH  27  32
ENDBRANCH  18  25
ENDBRANCH   1  20
TORSDOF 8
ENDMDL
