MODEL 1
REMARK VINA RESULT:    -8.862      0.000      0.000
REMARK INTER + INTRA:         -12.939
REMARK INTER:                 -12.230
REMARK INTRA:                  -0.709
REMARK UNBOUND:                -0.709
REMARK  Name = 
REMARK  7 active torsions:
REMARK  status: ('A' for Active; 'I' for Inactive)
REMARK    1  A    between atoms: C_2  and  C_4
REMARK    2  A    between atoms: N_8  and  C_9
REMARK    3  A    between atoms: C_9  and  C_10
REMARK    4  A    between atoms: C_10  and  C_11
REMARK    5  A    between atoms: C_15  and  C_16
REMARK    6  A    between atoms: C_17  and  C_18
REMARK    7  A    between atoms: C_18  and  O_19
REMARK                            x       y       z     vdW  Elec       q    Type
REMARK                         _______ _______ _______ _____ _____    ______ ____
ROOT
ATOM      1  C   UNL     1      46.475   2.495   7.689  0.00  0.00    +0.000 A 
ATOM      2  C   UNL     1      45.591   1.890   8.573  0.00  0.00    +0.000 A 
ATOM      3  C   UNL     1      44.670   2.680   9.261  0.00  0.00    +0.000 A 
ATOM      4  C   UNL     1      44.655   4.062   9.074  0.00  0.00    +0.000 A 
ATOM      5  N   UNL     1      43.704   4.882   9.670  0.00  0.00    +0.000 N 
ATOM      6  N   UNL     1      45.526   4.662   8.241  0.00  0.00    +0.000 NA
ATOM      7  C   UNL     1      46.422   3.877   7.573  0.00  0.00    +0.000 A 
ATOM      8  H   UNL     1      43.977   5.844   9.508  0.00  0.00    +0.000 HD
ENDROOT
BRANCH   1  10
ATOM      9  N   UNL     1      48.545   2.400   6.426  0.00  0.00    +0.000 N 
ATOM     10  C   UNL     1      47.457   1.720   6.903  0.00  0.00    +0.000 C 
ATOM     11  O   UNL     1      47.320   0.520   6.710  0.00  0.00    +0.000 OA
ATOM     12  H   UNL     1      49.256   1.853   5.958  0.00  0.00    +0.000 HD
ATOM     13  H   UNL     1      48.810   3.316   6.764  0.00  0.00    +0.000 HD
ENDBRANCH   1  10
BRANCH   5  14
ATOM     14  C   UNL     1      43.222   4.541  11.008  0.00  0.00    +0.000 C 
BRANCH  14  15
ATOM     15  C   UNL     1      43.470   5.683  11.999  0.00  0.00    +0.000 C 
BRANCH  15  16
ATOM     16  C   UNL     1      44.920   5.752  12.436  0.00  0.00    +0.000 A 
ATOM     17  C   UNL     1      45.751   6.774  11.961  0.00  0.00    +0.000 A 
ATOM     18  C   UNL     1      47.084   6.843  12.364  0.00  0.00    +0.000 A 
ATOM     19  C   UNL     1      47.598   5.904  13.259  0.00  0.00    +0.000 A 
ATOM     20  C   UNL     1      46.789   4.875  13.758  0.00  0.00    +0.000 A 
ATOM     21  C   UNL     1      45.453   4.801  13.326  0.00  0.00    +0.000 A 
BRANCH  20  22
ATOM     22  C   UNL     1      47.262   3.960  14.814  0.00  0.00    +0.000 C 
ATOM     23  C   UNL     1      47.293   4.247  16.126  0.00  0.00    +0.000 C 
BRANCH  23  24
ATOM     24  C   UNL     1      47.670   3.271  17.192  0.00  0.00    +0.000 C 
BRANCH  24  25
ATOM     25  O   UNL     1      46.485   2.728  17.750  0.00  0.00    +0.000 OA
ATOM     26  H   UNL     1      45.746   3.068  17.218  0.00  0.00    +0.000 HD
ENDBRANCH  24  25
ENDBRANCH  23  24
ENDBRANCH  20  22
ENDBRANCH  15  16
ENDBRANCH  14  15
ENDBRANCH   5  14
TORSDOF 7
ENDMDL
MODEL 2
REMARK VINA RESULT:    -7.748      2.820      3.442
REMARK INTER + INTRA:         -11.401
REMARK INTER:                 -10.763
REMARK INTRA:                  -0.639
REMARK UNBOUND:                -0.709
REMARK  Name = 
REMARK  7 active torsions:
REMARK  status: ('A' for Active; 'I' for Inactive)
REMARK    1  A    between atoms: C_2  and  C_4
REMARK    2  A    between atoms: N_8  and  C_9
REMARK    3  A    between atoms: C_9  and  C_10
REMARK    4  A    between atoms: C_10  and  C_11
REMARK    5  A    between atoms: C_15  and  C_16
REMARK    6  A    between atoms: C_17  and  C_18
REMARK    7  A    between atoms: C_18  and  O_19
REMARK                            x       y       z     vdW  Elec       q    Type
REMARK                         _______ _______ _______ _____ _____    ______ ____
ROOT
ATOM      1  C   UNL     1      46.522   2.551   7.655  0.00  0.00    +0.000 A 
ATOM      2  C   UNL     1      45.633   1.959   8.543  0.00  0.00    +0.000 A 
ATOM      3  C   UNL     1      44.768   2.768   9.280  0.00  0.00    +0.000 A 
ATOM      4  C   UNL     1      44.814   4.155   9.138  0.00  0.00    +0.000 A 
ATOM      5  N   UNL     1      43.919   4.998   9.785  0.00  0.00    +0.000 N 
ATOM      6  N   UNL     1      45.693   4.740   8.301  0.00  0.00    +0.000 NA
ATOM      7  C   UNL     1      46.533   3.937   7.585  0.00  0.00    +0.000 A 
ATOM      8  H   UNL     1      44.235   5.951   9.647  0.00  0.00    +0.000 HD
ENDROOT
BRANCH   1  10
ATOM      9  N   UNL     1      48.519   2.416   6.284  0.00  0.00    +0.000 N 
ATOM     10  C   UNL     1      47.445   1.756   6.819  0.00  0.00    +0.000 C 
ATOM     11  O   UNL     1      47.275   0.560   6.635  0.00  0.00    +0.000 OA
ATOM     12  H   UNL     1      49.193   1.854   5.779  0.00  0.00    +0.000 HD
ATOM     13  H   UNL     1      48.819   3.326   6.607  0.00  0.00    +0.000 HD
ENDBRANCH   1  10
BRANCH   5  14
ATOM     14  C   UNL     1      43.456   4.637  11.124  0.00  0.00    +0.000 C 
BRANCH  14  15
ATOM     15  C   UNL     1      44.608   4.638  12.134  0.00  0.00    +0.000 C 
BRANCH  15  16
ATOM     16  C   UNL     1      45.335   5.968  12.166  0.00  0.00    +0.000 A 
ATOM     17  C   UNL     1      44.628   7.152  12.407  0.00  0.00    +0.000 A 
ATOM     18  C   UNL     1      45.293   8.377  12.440  0.00  0.00    +0.000 A 
ATOM     19  C   UNL     1      46.675   8.431  12.253  0.00  0.00    +0.000 A 
ATOM     20  C   UNL     1      47.412   7.263  12.020  0.00  0.00    +0.000 A 
ATOM     21  C   UNL     1      46.726   6.037  11.963  0.00  0.00    +0.000 A 
BRANCH  20  22
ATOM     22  C   UNL     1      48.885   7.274  11.965  0.00  0.00    +0.000 C 
ATOM     23  C   UNL     1      49.630   8.242  11.406  0.00  0.00    +0.000 C 
BRANCH  23  24
ATOM     24  C   UNL     1      51.122   8.293  11.457  0.00  0.00    +0.000 C 
BRANCH  24  25
ATOM     25  O   UNL     1      51.636   7.098  10.896  0.00  0.00    +0.000 OA
ATOM     26  H   UNL     1      51.036   6.382  11.165  0.00  0.00    +0.000 HD
ENDBRANCH  24  25
ENDBRANCH  23  24
ENDBRANCH  20  22
ENDBRANCH  15  16
ENDBRANCH  14  15
ENDBRANCH   5  14
TORSDOF 7
ENDMDL
MODEL 3
REMARK VINA RESULT:    -7.609      2.812      4.063
REMARK INTER + INTRA:         -11.210
REMARK INTER:                 -10.409
REMARK INTRA:                  -0.802
REMARK UNBOUND:                -0.709
REMARK  Name = 
REMARK  7 active torsions:
REMARK  status: ('A' for Active; 'I' for Inactive)
REMARK    1  A    between atoms: C_2  and  C_4
REMARK    2  A    between atoms: N_8  and  C_9
REMARK    3  A    between atoms: C_9  and  C_10
REMARK    4  A    between atoms: C_10  and  C_11
REMARK    5  A    between atoms: C_15  and  C_16
REMARK    6  A    between atoms: C_17  and  C_18
REMARK    7  A    between atoms: C_18  and  O_19
REMARK                            x       y       z     vdW  Elec       q    Type
REMARK                         _______ _______ _______ _____ _____    ______ ____
ROOT
ATOM      1  C   UNL     1      46.394   2.844   7.496  0.00  0.00    +0.000 A 
ATOM      2  C   UNL     1      45.991   4.043   8.070  0.00  0.00    +0.000 A 
ATOM      3  C   UNL     1      45.233   4.016   9.240  0.00  0.00    +0.000 A 
ATOM      4  C   UNL     1      44.869   2.797   9.811  0.00  0.00    +0.000 A 
ATOM      5  N   UNL     1      44.188   2.716  11.019  0.00  0.00    +0.000 N 
ATOM      6  N   UNL     1      45.230   1.628   9.246  0.00  0.00    +0.000 NA
ATOM      7  C   UNL     1      45.973   1.668   8.101  0.00  0.00    +0.000 A 
ATOM      8  H   UNL     1      43.910   1.751  11.156  0.00  0.00    +0.000 HD
ENDROOT
BRANCH   1  10
ATOM      9  N   UNL     1      48.562   2.559   6.443  0.00  0.00    +0.000 N 
ATOM     10  C   UNL     1      47.224   2.795   6.275  0.00  0.00    +0.000 C 
ATOM     11  O   UNL     1      46.736   2.933   5.162  0.00  0.00    +0.000 OA
ATOM     12  H   UNL     1      49.114   2.445   5.603  0.00  0.00    +0.000 HD
ATOM     13  H   UNL     1      48.951   2.206   7.308  0.00  0.00    +0.000 HD
ENDBRANCH   1  10
BRANCH   5  14
ATOM     14  C   UNL     1      43.199   3.745  11.338  0.00  0.00    +0.000 C 
BRANCH  14  15
ATOM     15  C   UNL     1      43.375   4.266  12.769  0.00  0.00    +0.000 C 
BRANCH  15  16
ATOM     16  C   UNL     1      44.625   5.111  12.916  0.00  0.00    +0.000 A 
ATOM     17  C   UNL     1      45.796   4.552  13.444  0.00  0.00    +0.000 A 
ATOM     18  C   UNL     1      46.948   5.325  13.579  0.00  0.00    +0.000 A 
ATOM     19  C   UNL     1      46.951   6.659  13.171  0.00  0.00    +0.000 A 
ATOM     20  C   UNL     1      45.799   7.245  12.631  0.00  0.00    +0.000 A 
ATOM     21  C   UNL     1      44.635   6.462  12.524  0.00  0.00    +0.000 A 
BRANCH  20  22
ATOM     22  C   UNL     1      45.815   8.603  12.058  0.00  0.00    +0.000 C 
ATOM     23  C   UNL     1      44.736   9.264  11.609  0.00  0.00    +0.000 C 
BRANCH  23  24
ATOM     24  C   UNL     1      44.752  10.681  11.135  0.00  0.00    +0.000 C 
BRANCH  24  25
ATOM     25  O   UNL     1      45.226  11.506  12.186  0.00  0.00    +0.000 OA
ATOM     26  H   UNL     1      44.544  11.492  12.879  0.00  0.00    +0.000 HD
ENDBRANCH  24  25
ENDBRANCH  23  24
ENDBRANCH  20  22
ENDBRANCH  15  16
ENDBRANCH  14  15
ENDBRANCH   5  14
TORSDOF 7
ENDMDL
MODEL 4
REMARK VINA RESULT:    -7.503      2.418      3.435
REMARK INTER + INTRA:         -11.064
REMARK INTER:                 -10.404
REMARK INTRA:                  -0.660
REMARK UNBOUND:                -0.709
REMARK  Name = 
REMARK  7 active torsions:
REMARK  status: ('A' for Active; 'I' for Inactive)
REMARK    1  A    between atoms: C_2  and  C_4
REMARK    2  A    between atoms: N_8  and  C_9
REMARK    3  A    between atoms: C_9  and  C_10
REMARK    4  A    between atoms: C_10  and  C_11
REMARK    5  A    between atoms: C_15  and  C_16
REMARK    6  A    between atoms: C_17  and  C_18
REMARK    7  A    between atoms: C_18  and  O_19
REMARK                            x       y       z     vdW  Elec       q    Type
REMARK                         _______ _______ _______ _____ _____    ______ ____
ROOT
ATOM      1  C   UNL     1      46.496   2.727   7.547  0.00  0.00    +0.000 A 
ATOM      2  C   UNL     1      46.216   4.064   7.796  0.00  0.00    +0.000 A 
ATOM      3  C   UNL     1      45.371   4.398   8.854  0.00  0.00    +0.000 A 
ATOM      4  C   UNL     1      44.800   3.394   9.637  0.00  0.00    +0.000 A 
ATOM      5  N   UNL     1      44.021   3.675  10.752  0.00  0.00    +0.000 N 
ATOM      6  N   UNL     1      45.042   2.093   9.386  0.00  0.00    +0.000 NA
ATOM      7  C   UNL     1      45.872   1.781   8.348  0.00  0.00    +0.000 A 
ATOM      8  H   UNL     1      43.604   2.807  11.068  0.00  0.00    +0.000 HD
ENDROOT
BRANCH   1  10
ATOM      9  N   UNL     1      47.435   3.078   5.338  0.00  0.00    +0.000 N 
ATOM     10  C   UNL     1      47.406   2.301   6.464  0.00  0.00    +0.000 C 
ATOM     11  O   UNL     1      48.120   1.314   6.577  0.00  0.00    +0.000 OA
ATOM     12  H   UNL     1      48.117   2.831   4.631  0.00  0.00    +0.000 HD
ATOM     13  H   UNL     1      47.051   4.013   5.307  0.00  0.00    +0.000 HD
ENDBRANCH   1  10
BRANCH   5  14
ATOM     14  C   UNL     1      43.159   4.857  10.727  0.00  0.00    +0.000 C 
BRANCH  14  15
ATOM     15  C   UNL     1      43.355   5.719  11.980  0.00  0.00    +0.000 C 
BRANCH  15  16
ATOM     16  C   UNL     1      44.779   5.656  12.496  0.00  0.00    +0.000 A 
ATOM     17  C   UNL     1      45.118   4.764  13.522  0.00  0.00    +0.000 A 
ATOM     18  C   UNL     1      46.427   4.701  13.997  0.00  0.00    +0.000 A 
ATOM     19  C   UNL     1      47.416   5.514  13.443  0.00  0.00    +0.000 A 
ATOM     20  C   UNL     1      47.110   6.410  12.411  0.00  0.00    +0.000 A 
ATOM     21  C   UNL     1      45.781   6.483  11.957  0.00  0.00    +0.000 A 
BRANCH  20  22
ATOM     22  C   UNL     1      48.160   7.173  11.710  0.00  0.00    +0.000 C 
ATOM     23  C   UNL     1      49.336   7.539  12.246  0.00  0.00    +0.000 C 
BRANCH  23  24
ATOM     24  C   UNL     1      50.433   8.213  11.488  0.00  0.00    +0.000 C 
BRANCH  24  25
ATOM     25  O   UNL     1      51.334   7.224  11.018  0.00  0.00    +0.000 OA
ATOM     26  H   UNL     1      51.897   7.655  10.353  0.00  0.00    +0.000 HD
ENDBRANCH  24  25
ENDBRANCH  23  24
ENDBRANCH  20  22
ENDBRANCH  15  16
ENDBRANCH  14  15
ENDBRANCH   5  14
TORSDOF 7
ENDMDL
MODEL 5
REMARK VINA RESULT:    -7.057      3.317      8.158
REMARK INTER + INTRA:         -10.448
REMARK INTER:                  -9.983
REMARK INTRA:                  -0.466
REMARK UNBOUND:                -0.709
REMARK  Name = 
REMARK  7 active torsions:
REMARK  status: ('A' for Active; 'I' for Inactive)
REMARK    1  A    between atoms: C_2  and  C_4
REMARK    2  A    between atoms: N_8  and  C_9
REMARK    3  A    between atoms: C_9  and  C_10
REMARK    4  A    between atoms: C_10  and  C_11
REMARK    5  A    between atoms: C_15  and  C_16
REMARK    6  A    between atoms: C_17  and  C_18
REMARK    7  A    between atoms: C_18  and  O_19
REMARK                            x       y       z     vdW  Elec       q    Type
REMARK                         _______ _______ _______ _____ _____    ______ ____
ROOT
ATOM      1  C   UNL     1      48.444   4.595  16.973  0.00  0.00    +0.000 A 
ATOM      2  C   UNL     1      47.363   3.951  16.386  0.00  0.00    +0.000 A 
ATOM      3  C   UNL     1      46.881   4.410  15.161  0.00  0.00    +0.000 A 
ATOM      4  C   UNL     1      47.469   5.516  14.547  0.00  0.00    +0.000 A 
ATOM      5  N   UNL     1      47.083   5.960  13.288  0.00  0.00    +0.000 N 
ATOM      6  N   UNL     1      48.500   6.166  15.122  0.00  0.00    +0.000 NA
ATOM      7  C   UNL     1      48.962   5.705  16.321  0.00  0.00    +0.000 A 
ATOM      8  H   UNL     1      47.541   6.848  13.117  0.00  0.00    +0.000 HD
ENDROOT
BRANCH   1  10
ATOM      9  N   UNL     1      48.384   3.128  18.905  0.00  0.00    +0.000 N 
ATOM     10  C   UNL     1      49.028   4.146  18.255  0.00  0.00    +0.000 C 
ATOM     11  O   UNL     1      50.052   4.642  18.701  0.00  0.00    +0.000 OA
ATOM     12  H   UNL     1      48.829   2.768  19.740  0.00  0.00    +0.000 HD
ATOM     13  H   UNL     1      47.691   2.543  18.457  0.00  0.00    +0.000 HD
ENDBRANCH   1  10
BRANCH   5  14
ATOM     14  C   UNL     1      45.675   5.853  12.908  0.00  0.00    +0.000 C 
BRANCH  14  15
ATOM     15  C   UNL     1      45.480   6.099  11.408  0.00  0.00    +0.000 C 
BRANCH  15  16
ATOM     16  C   UNL     1      45.134   4.826  10.662  0.00  0.00    +0.000 A 
ATOM     17  C   UNL     1      44.284   3.877  11.245  0.00  0.00    +0.000 A 
ATOM     18  C   UNL     1      43.960   2.706  10.561  0.00  0.00    +0.000 A 
ATOM     19  C   UNL     1      44.465   2.478   9.280  0.00  0.00    +0.000 A 
ATOM     20  C   UNL     1      45.309   3.412   8.666  0.00  0.00    +0.000 A 
ATOM     21  C   UNL     1      45.649   4.578   9.377  0.00  0.00    +0.000 A 
BRANCH  20  22
ATOM     22  C   UNL     1      45.736   3.267   7.262  0.00  0.00    +0.000 C 
ATOM     23  C   UNL     1      47.000   3.053   6.859  0.00  0.00    +0.000 C 
BRANCH  23  24
ATOM     24  C   UNL     1      47.399   2.797   5.442  0.00  0.00    +0.000 C 
BRANCH  24  25
ATOM     25  O   UNL     1      48.468   1.866   5.433  0.00  0.00    +0.000 OA
ATOM     26  H   UNL     1      49.230   2.314   5.836  0.00  0.00    +0.000 HD
ENDBRANCH  24  25
ENDBRANCH  23  24
ENDBRANCH  20  22
ENDBRANCH  15  16
ENDBRANCH  14  15
ENDBRANCH   5  14
TORSDOF 7
ENDMDL
MODEL 6
REMARK VINA RESULT:    -7.023      2.950      4.255
REMARK INTER + INTRA:         -10.401
REMARK INTER:                 -10.025
REMARK INTRA:                  -0.376
REMARK UNBOUND:                -0.709
REMARK  Name = 
REMARK  7 active torsions:
REMARK  status: ('A' for Active; 'I' for Inactive)
REMARK    1  A    between atoms: C_2  and  C_4
REMARK    2  A    between atoms: N_8  and  C_9
REMARK    3  A    between atoms: C_9  and  C_10
REMARK    4  A    between atoms: C_10  and  C_11
REMARK    5  A    between atoms: C_15  and  C_16
REMARK    6  A    between atoms: C_17  and  C_18
REMARK    7  A    between atoms: C_18  and  O_19
REMARK                            x       y       z     vdW  Elec       q    Type
REMARK                         _______ _______ _______ _____ _____    ______ ____
ROOT
ATOM      1  C   UNL     1      46.402   2.376   7.818  0.00  0.00    +0.000 A 
ATOM      2  C   UNL     1      45.400   1.909   8.660  0.00  0.00    +0.000 A 
ATOM      3  C   UNL     1      44.600   2.828   9.339  0.00  0.00    +0.000 A 
ATOM      4  C   UNL     1      44.822   4.196   9.187  0.00  0.00    +0.000 A 
ATOM      5  N   UNL     1      44.001   5.152   9.774  0.00  0.00    +0.000 N 
ATOM      6  N   UNL     1      45.809   4.659   8.396  0.00  0.00    +0.000 NA
ATOM      7  C   UNL     1      46.584   3.749   7.736  0.00  0.00    +0.000 A 
ATOM      8  H   UNL     1      44.437   6.058   9.646  0.00  0.00    +0.000 HD
ENDROOT
BRANCH   1  10
ATOM      9  N   UNL     1      48.193   2.039   6.217  0.00  0.00    +0.000 N 
ATOM     10  C   UNL     1      47.267   1.463   7.043  0.00  0.00    +0.000 C 
ATOM     11  O   UNL     1      47.179   0.248   7.154  0.00  0.00    +0.000 OA
ATOM     12  H   UNL     1      48.838   1.415   5.749  0.00  0.00    +0.000 HD
ATOM     13  H   UNL     1      48.454   3.015   6.282  0.00  0.00    +0.000 HD
ENDBRANCH   1  10
BRANCH   5  14
ATOM     14  C   UNL     1      43.424   4.870  11.088  0.00  0.00    +0.000 C 
BRANCH  14  15
ATOM     15  C   UNL     1      44.512   4.738  12.160  0.00  0.00    +0.000 C 
BRANCH  15  16
ATOM     16  C   UNL     1      45.396   5.967  12.228  0.00  0.00    +0.000 A 
ATOM     17  C   UNL     1      46.763   5.838  12.506  0.00  0.00    +0.000 A 
ATOM     18  C   UNL     1      47.580   6.966  12.567  0.00  0.00    +0.000 A 
ATOM     19  C   UNL     1      47.046   8.234  12.333  0.00  0.00    +0.000 A 
ATOM     20  C   UNL     1      45.685   8.395  12.044  0.00  0.00    +0.000 A 
ATOM     21  C   UNL     1      44.866   7.253  12.011  0.00  0.00    +0.000 A 
BRANCH  20  22
ATOM     22  C   UNL     1      45.126   9.702  11.650  0.00  0.00    +0.000 C 
ATOM     23  C   UNL     1      43.832  10.049  11.752  0.00  0.00    +0.000 C 
BRANCH  23  24
ATOM     24  C   UNL     1      43.301  11.413  11.452  0.00  0.00    +0.000 C 
BRANCH  24  25
ATOM     25  O   UNL     1      42.016  11.538  12.038  0.00  0.00    +0.000 OA
ATOM     26  H   UNL     1      41.551  12.233  11.542  0.00  0.00    +0.000 HD
ENDBRANCH  24  25
ENDBRANCH  23  24
ENDBRANCH  20  22
ENDBRANCH  15  16
ENDBRANCH  14  15
ENDBRANCH   5  14
TORSDOF 7
ENDMDL
MODEL 7
REMARK VINA RESULT:    -6.685      3.727      7.334
REMARK INTER + INTRA:          -9.934
REMARK INTER:                  -9.403
REMARK INTRA:                  -0.531
REMARK UNBOUND:                -0.709
REMARK  Name = 
REMARK  7 active torsions:
REMARK  status: ('A' for Active; 'I' for Inactive)
REMARK    1  A    between atoms: C_2  and  C_4
REMARK    2  A    between atoms: N_8  and  C_9
REMARK    3  A    between atoms: C_9  and  C_10
REMARK    4  A    between atoms: C_10  and  C_11
REMARK    5  A    between atoms: C_15  and  C_16
REMARK    6  A    between atoms: C_17  and  C_18
REMARK    7  A    between atoms: C_18  and  O_19
REMARK                            x       y       z     vdW  Elec       q    Type
REMARK                         _______ _______ _______ _____ _____    ______ ____
ROOT
ATOM      1  C   UNL     1      48.025   8.984  12.091  0.00  0.00    +0.000 A 
ATOM      2  C   UNL     1      46.697   9.241  12.402  0.00  0.00    +0.000 A 
ATOM      3  C   UNL     1      45.853   8.176  12.717  0.00  0.00    +0.000 A 
ATOM      4  C   UNL     1      46.339   6.869  12.697  0.00  0.00    +0.000 A 
ATOM      5  N   UNL     1      45.564   5.782  13.083  0.00  0.00    +0.000 N 
ATOM      6  N   UNL     1      47.619   6.605  12.368  0.00  0.00    +0.000 NA
ATOM      7  C   UNL     1      48.434   7.658  12.063  0.00  0.00    +0.000 A 
ATOM      8  H   UNL     1      46.073   4.938  12.850  0.00  0.00    +0.000 HD
ENDROOT
BRANCH   1  10
ATOM      9  N   UNL     1      49.999  10.270  12.672  0.00  0.00    +0.000 N 
ATOM     10  C   UNL     1      48.984  10.064  11.777  0.00  0.00    +0.000 C 
ATOM     11  O   UNL     1      48.892  10.726  10.753  0.00  0.00    +0.000 OA
ATOM     12  H   UNL     1      50.700  10.954  12.416  0.00  0.00    +0.000 HD
ATOM     13  H   UNL     1      50.243   9.598  13.388  0.00  0.00    +0.000 HD
ENDBRANCH   1  10
BRANCH   5  14
ATOM     14  C   UNL     1      44.132   5.800  12.787  0.00  0.00    +0.000 C 
BRANCH  14  15
ATOM     15  C   UNL     1      43.873   5.911  11.281  0.00  0.00    +0.000 C 
BRANCH  15  16
ATOM     16  C   UNL     1      44.231   4.634  10.546  0.00  0.00    +0.000 A 
ATOM     17  C   UNL     1      43.730   3.403  10.988  0.00  0.00    +0.000 A 
ATOM     18  C   UNL     1      44.054   2.227  10.314  0.00  0.00    +0.000 A 
ATOM     19  C   UNL     1      44.866   2.268   9.179  0.00  0.00    +0.000 A 
ATOM     20  C   UNL     1      45.375   3.485   8.708  0.00  0.00    +0.000 A 
ATOM     21  C   UNL     1      45.062   4.661   9.411  0.00  0.00    +0.000 A 
BRANCH  20  22
ATOM     22  C   UNL     1      46.111   3.575   7.433  0.00  0.00    +0.000 C 
ATOM     23  C   UNL     1      46.810   2.574   6.873  0.00  0.00    +0.000 C 
BRANCH  23  24
ATOM     24  C   UNL     1      47.456   2.648   5.528  0.00  0.00    +0.000 C 
BRANCH  24  25
ATOM     25  O   UNL     1      48.588   1.795   5.521  0.00  0.00    +0.000 OA
ATOM     26  H   UNL     1      49.290   2.268   5.043  0.00  0.00    +0.000 HD
ENDBRANCH  24  25
ENDBRANCH  23  24
ENDBRANCH  20  22
ENDBRANCH  15  16
ENDBRANCH  14  15
ENDBRANCH   5  14
TORSDOF 7
ENDMDL
MODEL 8
REMARK VINA RESULT:    -6.057      3.051      4.898
REMARK INTER + INTRA:          -9.068
REMARK INTER:                  -8.086
REMARK INTRA:                  -0.982
REMARK UNBOUND:                -0.709
REMARK  Name = 
REMARK  7 active torsions:
REMARK  status: ('A' for Active; 'I' for Inactive)
REMARK    1  A    between atoms: C_2  and  C_4
REMARK    2  A    between atoms: N_8  and  C_9
REMARK    3  A    between atoms: C_9  and  C_10
REMARK    4  A    between atoms: C_10  and  C_11
REMARK    5  A    between atoms: C_15  and  C_16
REMARK    6  A    between atoms: C_17  and  C_18
REMARK    7  A    between atoms: C_18  and  O_19
REMARK                            x       y       z     vdW  Elec       q    Type
REMARK                         _______ _______ _______ _____ _____    ______ ____
ROOT
ATOM      1  C   UNL     1      45.082   4.359  11.759  0.00  0.00    +0.000 A 
ATOM      2  C   UNL     1      45.891   4.529  12.875  0.00  0.00    +0.000 A 
ATOM      3  C   UNL     1      46.796   5.590  12.904  0.00  0.00    +0.000 A 
ATOM      4  C   UNL     1      46.897   6.455  11.815  0.00  0.00    +0.000 A 
ATOM      5  N   UNL     1      47.720   7.574  11.828  0.00  0.00    +0.000 N 
ATOM      6  N   UNL     1      46.137   6.282  10.715  0.00  0.00    +0.000 NA
ATOM      7  C   UNL     1      45.255   5.240  10.700  0.00  0.00    +0.000 A 
ATOM      8  H   UNL     1      47.737   7.959  10.891  0.00  0.00    +0.000 HD
ENDROOT
BRANCH   1  10
ATOM      9  N   UNL     1      43.862   2.540  12.802  0.00  0.00    +0.000 N 
ATOM     10  C   UNL     1      44.080   3.277  11.670  0.00  0.00    +0.000 C 
ATOM     11  O   UNL     1      43.455   3.066  10.641  0.00  0.00    +0.000 OA
ATOM     12  H   UNL     1      43.119   1.853  12.763  0.00  0.00    +0.000 HD
ATOM     13  H   UNL     1      44.175   2.836  13.717  0.00  0.00    +0.000 HD
ENDBRANCH   1  10
BRANCH   5  14
ATOM     14  C   UNL     1      48.994   7.501  12.542  0.00  0.00    +0.000 C 
BRANCH  14  15
ATOM     15  C   UNL     1      49.194   8.715  13.456  0.00  0.00    +0.000 C 
BRANCH  15  16
ATOM     16  C   UNL     1      48.959   8.374  14.914  0.00  0.00    +0.000 A 
ATOM     17  C   UNL     1      48.640   9.384  15.831  0.00  0.00    +0.000 A 
ATOM     18  C   UNL     1      48.420   9.075  17.172  0.00  0.00    +0.000 A 
ATOM     19  C   UNL     1      48.498   7.752  17.610  0.00  0.00    +0.000 A 
ATOM     20  C   UNL     1      48.806   6.719  16.716  0.00  0.00    +0.000 A 
ATOM     21  C   UNL     1      49.051   7.047  15.370  0.00  0.00    +0.000 A 
BRANCH  20  22
ATOM     22  C   UNL     1      48.751   5.302  17.120  0.00  0.00    +0.000 C 
ATOM     23  C   UNL     1      47.727   4.468  16.871  0.00  0.00    +0.000 C 
BRANCH  23  24
ATOM     24  C   UNL     1      47.734   3.009  17.188  0.00  0.00    +0.000 C 
BRANCH  24  25
ATOM     25  O   UNL     1      46.490   2.666  17.774  0.00  0.00    +0.000 OA
ATOM     26  H   UNL     1      45.896   3.422  17.629  0.00  0.00    +0.000 HD
ENDBRANCH  24  25
ENDBRANCH  23  24
ENDBRANCH  20  22
ENDBRANCH  15  16
ENDBRANCH  14  15
ENDBRANCH   5  14
TORSDOF 7
ENDMDL
MODEL 9
REMARK VINA RESULT:    -6.047      3.605      7.863
REMARK INTER + INTRA:          -9.055
REMARK INTER:                  -8.570
REMARK INTRA:                  -0.485
REMARK UNBOUND:                -0.709
REMARK  Name = 
REMARK  7 active torsions:
REMARK  status: ('A' for Active; 'I' for Inactive)
REMARK    1  A    between atoms: C_2  and  C_4
REMARK    2  A    between atoms: N_8  and  C_9
REMARK    3  A    between atoms: C_9  and  C_10
REMARK    4  A    between atoms: C_10  and  C_11
REMARK    5  A    between atoms: C_15  and  C_16
REMARK    6  A    between atoms: C_17  and  C_18
REMARK    7  A    between atoms: C_18  and  O_19
REMARK                            x       y       z     vdW  Elec       q    Type
REMARK                         _______ _______ _______ _____ _____    ______ ____
ROOT
ATOM      1  C   UNL     1      49.779   7.267  14.801  0.00  0.00    +0.000 A 
ATOM      2  C   UNL     1      48.638   6.517  15.056  0.00  0.00    +0.000 A 
ATOM      3  C   UNL     1      47.700   6.338  14.039  0.00  0.00    +0.000 A 
ATOM      4  C   UNL     1      47.902   6.925  12.790  0.00  0.00    +0.000 A 
ATOM      5  N   UNL     1      47.042   6.708  11.720  0.00  0.00    +0.000 N 
ATOM      6  N   UNL     1      48.991   7.678  12.541  0.00  0.00    +0.000 NA
ATOM      7  C   UNL     1      49.901   7.844  13.545  0.00  0.00    +0.000 A 
ATOM      8  H   UNL     1      47.306   7.342  10.975  0.00  0.00    +0.000 HD
ENDROOT
BRANCH   1  10
ATOM      9  N   UNL     1      50.418   7.867  17.063  0.00  0.00    +0.000 N 
ATOM     10  C   UNL     1      50.830   7.473  15.819  0.00  0.00    +0.000 C 
ATOM     11  O   UNL     1      52.011   7.276  15.571  0.00  0.00    +0.000 OA
ATOM     12  H   UNL     1      51.129   7.929  17.781  0.00  0.00    +0.000 HD
ATOM     13  H   UNL     1      49.455   7.805  17.367  0.00  0.00    +0.000 HD
ENDBRANCH   1  10
BRANCH   5  14
ATOM     14  C   UNL     1      45.613   6.553  11.988  0.00  0.00    +0.000 C 
BRANCH  14  15
ATOM     15  C   UNL     1      44.814   6.396  10.689  0.00  0.00    +0.000 C 
BRANCH  15  16
ATOM     16  C   UNL     1      44.760   4.954  10.225  0.00  0.00    +0.000 A 
ATOM     17  C   UNL     1      44.087   3.992  10.989  0.00  0.00    +0.000 A 
ATOM     18  C   UNL     1      44.033   2.666  10.565  0.00  0.00    +0.000 A 
ATOM     19  C   UNL     1      44.633   2.288   9.363  0.00  0.00    +0.000 A 
ATOM     20  C   UNL     1      45.305   3.227   8.572  0.00  0.00    +0.000 A 
ATOM     21  C   UNL     1      45.375   4.558   9.024  0.00  0.00    +0.000 A 
BRANCH  20  22
ATOM     22  C   UNL     1      45.819   2.888   7.232  0.00  0.00    +0.000 C 
ATOM     23  C   UNL     1      47.055   3.168   6.786  0.00  0.00    +0.000 C 
BRANCH  23  24
ATOM     24  C   UNL     1      47.596   2.719   5.468  0.00  0.00    +0.000 C 
BRANCH  24  25
ATOM     25  O   UNL     1      48.504   1.653   5.689  0.00  0.00    +0.000 OA
ATOM     26  H   UNL     1      47.978   0.835   5.688  0.00  0.00    +0.000 HD
ENDBRANCH  24  25
ENDBRANCH  23  24
ENDBRANCH  20  22
ENDBRANCH  15  16
ENDBRANCH  14  15
ENDBRANCH   5  14
TORSDOF 7
ENDMDL
