MODEL 1
REMARK VINA RESULT:    -7.538      0.000      0.000
REMARK INTER + INTRA:         -10.631
REMARK INTER:                  -9.741
REMARK INTRA:                  -0.890
REMARK UNBOUND:                -0.890
REMARK  Name = 
REMARK  5 active torsions:
REMARK  status: ('A' for Active; 'I' for Inactive)
REMARK    1  A    between atoms: C_2  and  C_3
REMARK    2  A    between atoms: C_7  and  O_8
REMARK    3  A    between atoms: O_8  and  C_9
REMARK    4  A    between atoms: C_9  and  C_10
REMARK    5  A    between atoms: C_15  and  N_16
REMARK                            x       y       z     vdW  Elec       q    Type
REMARK                         _______ _______ _______ _____ _____    ______ ____
ROOT
ATOM      1  C   UNL     1      44.824   5.026  11.497  0.00  0.00    +0.000 A 
ATOM      2  C   UNL     1      45.101   4.009  12.416  0.00  0.00    +0.000 A 
ATOM      3  C   UNL     1      46.086   4.191  13.383  0.00  0.00    +0.000 A 
ATOM      4  C   UNL     1      46.808   5.385  13.429  0.00  0.00    +0.000 A 
ATOM      5  F   UNL     1      47.742   5.505  14.388  0.00  0.00    +0.000 F 
ATOM      6  C   UNL     1      46.567   6.437  12.530  0.00  0.00    +0.000 A 
ATOM      7  C   UNL     1      45.541   6.236  11.585  0.00  0.00    +0.000 A 
ENDROOT
BRANCH   6   8
ATOM      8  N   UNL     1      47.316   7.606  12.487  0.00  0.00    +0.000 N 
ATOM      9  C   UNL     1      48.615   7.651  11.800  0.00  0.00    +0.000 C 
ATOM     10  C   UNL     1      49.781   7.898  12.780  0.00  0.00    +0.000 C 
ATOM     11  N   UNL     1      49.569   9.074  13.652  0.00  0.00    +0.000 NA
ATOM     12  C   UNL     1      48.305   8.876  14.393  0.00  0.00    +0.000 C 
ATOM     13  C   UNL     1      47.071   8.662  13.484  0.00  0.00    +0.000 C 
ATOM     14  H   UNL     1      49.457   9.892  13.052  0.00  0.00    +0.000 HD
ENDBRANCH   6   8
BRANCH   1  15
ATOM     15  C   UNL     1      43.804   4.825  10.396  0.00  0.00    +0.000 C 
BRANCH  15  16
ATOM     16  O   UNL     1      43.911   3.506   9.863  0.00  0.00    +0.000 OA
BRANCH  16  21
ATOM     17  C   UNL     1      46.295   1.554   7.922  0.00  0.00    +0.000 A 
ATOM     18  C   UNL     1      46.959   2.534   7.175  0.00  0.00    +0.000 A 
ATOM     19  C   UNL     1      46.612   3.876   7.327  0.00  0.00    +0.000 A 
ATOM     20  C   UNL     1      45.599   4.248   8.221  0.00  0.00    +0.000 A 
ATOM     21  C   UNL     1      44.922   3.277   8.964  0.00  0.00    +0.000 A 
ATOM     22  C   UNL     1      45.277   1.934   8.810  0.00  0.00    +0.000 A 
BRANCH  17  24
ATOM     23  N   UNL     1      46.939  -0.946   7.676  0.00  0.00    +0.000 NA
ATOM     24  C   UNL     1      46.655   0.175   7.781  0.00  0.00    +0.000 C 
ENDBRANCH  17  24
ENDBRANCH  16  21
ENDBRANCH  15  16
ENDBRANCH   1  15
TORSDOF 5
ENDMDL
MODEL 2
REMARK VINA RESULT:    -6.706      3.111      7.087
REMARK INTER + INTRA:          -9.556
REMARK INTER:                  -9.130
REMARK INTRA:                  -0.426
REMARK UNBOUND:                -0.890
REMARK  Name = 
REMARK  5 active torsions:
REMARK  status: ('A' for Active; 'I' for Inactive)
REMARK    1  A    between atoms: C_2  and  C_3
REMARK    2  A    between atoms: C_7  and  O_8
REMARK    3  A    between atoms: O_8  and  C_9
REMARK    4  A    between atoms: C_9  and  C_10
REMARK    5  A    between atoms: C_15  and  N_16
REMARK                            x       y       z     vdW  Elec       q    Type
REMARK                         _______ _______ _______ _____ _____    ______ ____
ROOT
ATOM      1  C   UNL     1      45.134   5.423  12.328  0.00  0.00    +0.000 A 
ATOM      2  C   UNL     1      44.241   4.884  13.261  0.00  0.00    +0.000 A 
ATOM      3  C   UNL     1      43.460   3.782  12.923  0.00  0.00    +0.000 A 
ATOM      4  C   UNL     1      43.558   3.219  11.650  0.00  0.00    +0.000 A 
ATOM      5  F   UNL     1      42.784   2.154  11.384  0.00  0.00    +0.000 F 
ATOM      6  C   UNL     1      44.440   3.722  10.679  0.00  0.00    +0.000 A 
ATOM      7  C   UNL     1      45.241   4.816  11.061  0.00  0.00    +0.000 A 
ENDROOT
BRANCH   6   8
ATOM      8  N   UNL     1      44.509   3.246   9.375  0.00  0.00    +0.000 N 
ATOM      9  C   UNL     1      44.721   1.818   9.099  0.00  0.00    +0.000 C 
ATOM     10  C   UNL     1      46.075   1.555   8.408  0.00  0.00    +0.000 C 
ATOM     11  N   UNL     1      46.289   2.394   7.208  0.00  0.00    +0.000 NA
ATOM     12  C   UNL     1      46.183   3.812   7.614  0.00  0.00    +0.000 C 
ATOM     13  C   UNL     1      44.834   4.175   8.280  0.00  0.00    +0.000 C 
ATOM     14  H   UNL     1      45.534   2.197   6.551  0.00  0.00    +0.000 HD
ENDBRANCH   6   8
BRANCH   1  15
ATOM     15  C   UNL     1      45.943   6.662  12.650  0.00  0.00    +0.000 C 
BRANCH  15  16
ATOM     16  O   UNL     1      47.327   6.330  12.754  0.00  0.00    +0.000 OA
BRANCH  16  21
ATOM     17  C   UNL     1      47.792   4.925  16.080  0.00  0.00    +0.000 A 
ATOM     18  C   UNL     1      48.759   5.769  16.638  0.00  0.00    +0.000 A 
ATOM     19  C   UNL     1      49.262   6.835  15.895  0.00  0.00    +0.000 A 
ATOM     20  C   UNL     1      48.807   7.064  14.589  0.00  0.00    +0.000 A 
ATOM     21  C   UNL     1      47.849   6.222  14.018  0.00  0.00    +0.000 A 
ATOM     22  C   UNL     1      47.346   5.156  14.771  0.00  0.00    +0.000 A 
BRANCH  17  24
ATOM     23  N   UNL     1      46.820   2.960  17.467  0.00  0.00    +0.000 NA
ATOM     24  C   UNL     1      47.261   3.835  16.844  0.00  0.00    +0.000 C 
ENDBRANCH  17  24
ENDBRANCH  16  21
ENDBRANCH  15  16
ENDBRANCH   1  15
TORSDOF 5
ENDMDL
MODEL 3
REMARK VINA RESULT:    -6.487      3.655      7.442
REMARK INTER + INTRA:          -9.273
REMARK INTER:                  -8.464
REMARK INTRA:                  -0.809
REMARK UNBOUND:                -0.890
REMARK  Name = 
REMARK  5 active torsions:
REMARK  status: ('A' for Active; 'I' for Inactive)
REMARK    1  A    between atoms: C_2  and  C_3
REMARK    2  A    between atoms: C_7  and  O_8
REMARK    3  A    between atoms: O_8  and  C_9
REMARK    4  A    between atoms: C_9  and  C_10
REMARK    5  A    between atoms: C_15  and  N_16
REMARK                            x       y       z     vdW  Elec       q    Type
REMARK                         _______ _______ _______ _____ _____    ______ ____
ROOT
ATOM      1  C   UNL     1      46.933   6.910  12.431  0.00  0.00    +0.000 A 
ATOM      2  C   UNL     1      46.573   8.248  12.242  0.00  0.00    +0.000 A 
ATOM      3  C   UNL     1      45.303   8.570  11.769  0.00  0.00    +0.000 A 
ATOM      4  C   UNL     1      44.391   7.556  11.471  0.00  0.00    +0.000 A 
ATOM      5  F   UNL     1      43.180   7.927  11.024  0.00  0.00    +0.000 F 
ATOM      6  C   UNL     1      44.704   6.198  11.645  0.00  0.00    +0.000 A 
ATOM      7  C   UNL     1      45.983   5.905  12.157  0.00  0.00    +0.000 A 
ENDROOT
BRANCH   6   8
ATOM      8  N   UNL     1      43.858   5.156  11.284  0.00  0.00    +0.000 N 
ATOM      9  C   UNL     1      43.139   4.375  12.301  0.00  0.00    +0.000 C 
ATOM     10  C   UNL     1      43.607   2.906  12.342  0.00  0.00    +0.000 C 
ATOM     11  N   UNL     1      43.586   2.250  11.016  0.00  0.00    +0.000 NA
ATOM     12  C   UNL     1      44.438   3.038  10.100  0.00  0.00    +0.000 C 
ATOM     13  C   UNL     1      44.012   4.520   9.965  0.00  0.00    +0.000 C 
ATOM     14  H   UNL     1      42.628   2.286  10.665  0.00  0.00    +0.000 HD
ENDBRANCH   6   8
BRANCH   1  15
ATOM     15  C   UNL     1      48.330   6.535  12.880  0.00  0.00    +0.000 C 
BRANCH  15  16
ATOM     16  O   UNL     1      48.718   7.335  13.996  0.00  0.00    +0.000 OA
BRANCH  16  21
ATOM     17  C   UNL     1      48.346   4.927  16.700  0.00  0.00    +0.000 A 
ATOM     18  C   UNL     1      49.482   5.164  17.482  0.00  0.00    +0.000 A 
ATOM     19  C   UNL     1      50.389   6.153  17.106  0.00  0.00    +0.000 A 
ATOM     20  C   UNL     1      50.170   6.909  15.946  0.00  0.00    +0.000 A 
ATOM     21  C   UNL     1      49.044   6.675  15.153  0.00  0.00    +0.000 A 
ATOM     22  C   UNL     1      48.137   5.683  15.538  0.00  0.00    +0.000 A 
BRANCH  17  24
ATOM     23  N   UNL     1      46.640   3.099  17.392  0.00  0.00    +0.000 NA
ATOM     24  C   UNL     1      47.403   3.920  17.089  0.00  0.00    +0.000 C 
ENDBRANCH  17  24
ENDBRANCH  16  21
ENDBRANCH  15  16
ENDBRANCH   1  15
TORSDOF 5
ENDMDL
MODEL 4
REMARK VINA RESULT:    -6.427      3.223      4.284
REMARK INTER + INTRA:          -9.196
REMARK INTER:                  -8.371
REMARK INTRA:                  -0.824
REMARK UNBOUND:                -0.890
REMARK  Name = 
REMARK  5 active torsions:
REMARK  status: ('A' for Active; 'I' for Inactive)
REMARK    1  A    between atoms: C_2  and  C_3
REMARK    2  A    between atoms: C_7  and  O_8
REMARK    3  A    between atoms: O_8  and  C_9
REMARK    4  A    between atoms: C_9  and  C_10
REMARK    5  A    between atoms: C_15  and  N_16
REMARK                            x       y       z     vdW  Elec       q    Type
REMARK                         _______ _______ _______ _____ _____    ______ ____
ROOT
ATOM      1  C   UNL     1      46.036   5.701  13.286  0.00  0.00    +0.000 A 
ATOM      2  C   UNL     1      46.996   6.695  13.065  0.00  0.00    +0.000 A 
ATOM      3  C   UNL     1      48.103   6.795  13.904  0.00  0.00    +0.000 A 
ATOM      4  C   UNL     1      48.252   5.911  14.974  0.00  0.00    +0.000 A 
ATOM      5  F   UNL     1      49.343   6.052  15.744  0.00  0.00    +0.000 F 
ATOM      6  C   UNL     1      47.318   4.895  15.237  0.00  0.00    +0.000 A 
ATOM      7  C   UNL     1      46.226   4.798  14.351  0.00  0.00    +0.000 A 
ENDROOT
BRANCH   6   8
ATOM      8  N   UNL     1      47.383   4.049  16.337  0.00  0.00    +0.000 N 
ATOM      9  C   UNL     1      47.152   4.554  17.698  0.00  0.00    +0.000 C 
ATOM     10  C   UNL     1      48.420   4.463  18.572  0.00  0.00    +0.000 C 
ATOM     11  N   UNL     1      49.033   3.117  18.572  0.00  0.00    +0.000 NA
ATOM     12  C   UNL     1      49.344   2.753  17.173  0.00  0.00    +0.000 C 
ATOM     13  C   UNL     1      48.116   2.776  16.231  0.00  0.00    +0.000 C 
ATOM     14  H   UNL     1      48.338   2.457  18.922  0.00  0.00    +0.000 HD
ENDBRANCH   6   8
BRANCH   1  15
ATOM     15  C   UNL     1      44.791   5.616  12.429  0.00  0.00    +0.000 C 
BRANCH  15  16
ATOM     16  O   UNL     1      45.139   5.706  11.048  0.00  0.00    +0.000 OA
BRANCH  16  21
ATOM     17  C   UNL     1      45.614   3.515   8.179  0.00  0.00    +0.000 A 
ATOM     18  C   UNL     1      44.966   2.341   8.578  0.00  0.00    +0.000 A 
ATOM     19  C   UNL     1      44.349   2.278   9.827  0.00  0.00    +0.000 A 
ATOM     20  C   UNL     1      44.379   3.385  10.686  0.00  0.00    +0.000 A 
ATOM     21  C   UNL     1      45.031   4.560  10.302  0.00  0.00    +0.000 A 
ATOM     22  C   UNL     1      45.644   4.616   9.047  0.00  0.00    +0.000 A 
BRANCH  17  24
ATOM     23  N   UNL     1      46.751   3.641   5.851  0.00  0.00    +0.000 NA
ATOM     24  C   UNL     1      46.237   3.590   6.891  0.00  0.00    +0.000 C 
ENDBRANCH  17  24
ENDBRANCH  16  21
ENDBRANCH  15  16
ENDBRANCH   1  15
TORSDOF 5
ENDMDL
MODEL 5
REMARK VINA RESULT:    -6.364      4.325      7.741
REMARK INTER + INTRA:          -9.114
REMARK INTER:                  -8.225
REMARK INTRA:                  -0.889
REMARK UNBOUND:                -0.890
REMARK  Name = 
REMARK  5 active torsions:
REMARK  status: ('A' for Active; 'I' for Inactive)
REMARK    1  A    between atoms: C_2  and  C_3
REMARK    2  A    between atoms: C_7  and  O_8
REMARK    3  A    between atoms: O_8  and  C_9
REMARK    4  A    between atoms: C_9  and  C_10
REMARK    5  A    between atoms: C_15  and  N_16
REMARK                            x       y       z     vdW  Elec       q    Type
REMARK                         _______ _______ _______ _____ _____    ______ ____
ROOT
ATOM      1  C   UNL     1      48.157   6.593  13.827  0.00  0.00    +0.000 A 
ATOM      2  C   UNL     1      48.401   7.338  12.668  0.00  0.00    +0.000 A 
ATOM      3  C   UNL     1      47.558   7.210  11.566  0.00  0.00    +0.000 A 
ATOM      4  C   UNL     1      46.476   6.329  11.612  0.00  0.00    +0.000 A 
ATOM      5  F   UNL     1      45.696   6.253  10.522  0.00  0.00    +0.000 F 
ATOM      6  C   UNL     1      46.188   5.561  12.752  0.00  0.00    +0.000 A 
ATOM      7  C   UNL     1      47.038   5.738  13.863  0.00  0.00    +0.000 A 
ENDROOT
BRANCH   6   8
ATOM      8  N   UNL     1      45.173   4.614  12.812  0.00  0.00    +0.000 N 
ATOM      9  C   UNL     1      45.334   3.289  12.196  0.00  0.00    +0.000 C 
ATOM     10  C   UNL     1      44.360   3.076  11.019  0.00  0.00    +0.000 C 
ATOM     11  N   UNL     1      42.952   3.362  11.369  0.00  0.00    +0.000 NA
ATOM     12  C   UNL     1      42.873   4.755  11.858  0.00  0.00    +0.000 C 
ATOM     13  C   UNL     1      43.790   5.048  13.070  0.00  0.00    +0.000 C 
ATOM     14  H   UNL     1      42.689   2.743  12.137  0.00  0.00    +0.000 HD
ENDBRANCH   6   8
BRANCH   1  15
ATOM     15  C   UNL     1      49.097   6.666  15.012  0.00  0.00    +0.000 C 
BRANCH  15  16
ATOM     16  O   UNL     1      48.357   6.877  16.214  0.00  0.00    +0.000 OA
BRANCH  16  21
ATOM     17  C   UNL     1      49.340   3.707  17.713  0.00  0.00    +0.000 A 
ATOM     18  C   UNL     1      48.901   3.843  19.034  0.00  0.00    +0.000 A 
ATOM     19  C   UNL     1      48.256   5.012  19.435  0.00  0.00    +0.000 A 
ATOM     20  C   UNL     1      48.048   6.054  18.521  0.00  0.00    +0.000 A 
ATOM     21  C   UNL     1      48.490   5.933  17.201  0.00  0.00    +0.000 A 
ATOM     22  C   UNL     1      49.133   4.757  16.805  0.00  0.00    +0.000 A 
BRANCH  17  24
ATOM     23  N   UNL     1      50.512   1.526  16.938  0.00  0.00    +0.000 NA
ATOM     24  C   UNL     1      49.991   2.503  17.291  0.00  0.00    +0.000 C 
ENDBRANCH  17  24
ENDBRANCH  16  21
ENDBRANCH  15  16
ENDBRANCH   1  15
TORSDOF 5
ENDMDL
MODEL 6
REMARK VINA RESULT:    -6.276      4.930      7.831
REMARK INTER + INTRA:          -9.000
REMARK INTER:                  -8.144
REMARK INTRA:                  -0.856
REMARK UNBOUND:                -0.890
REMARK  Name = 
REMARK  5 active torsions:
REMARK  status: ('A' for Active; 'I' for Inactive)
REMARK    1  A    between atoms: C_2  and  C_3
REMARK    2  A    between atoms: C_7  and  O_8
REMARK    3  A    between atoms: O_8  and  C_9
REMARK    4  A    between atoms: C_9  and  C_10
REMARK    5  A    between atoms: C_15  and  N_16
REMARK                            x       y       z     vdW  Elec       q    Type
REMARK                         _______ _______ _______ _____ _____    ______ ____
ROOT
ATOM      1  C   UNL     1      45.018   8.763  11.760  0.00  0.00    +0.000 A 
ATOM      2  C   UNL     1      46.196   8.555  12.486  0.00  0.00    +0.000 A 
ATOM      3  C   UNL     1      46.609   7.260  12.790  0.00  0.00    +0.000 A 
ATOM      4  C   UNL     1      45.842   6.167  12.382  0.00  0.00    +0.000 A 
ATOM      5  F   UNL     1      46.294   4.943  12.699  0.00  0.00    +0.000 F 
ATOM      6  C   UNL     1      44.653   6.323  11.650  0.00  0.00    +0.000 A 
ATOM      7  C   UNL     1      44.279   7.643  11.328  0.00  0.00    +0.000 A 
ENDROOT
BRANCH   6   8
ATOM      8  N   UNL     1      43.818   5.271  11.296  0.00  0.00    +0.000 N 
ATOM      9  C   UNL     1      43.044   4.542  12.311  0.00  0.00    +0.000 C 
ATOM     10  C   UNL     1      43.498   3.073  12.441  0.00  0.00    +0.000 C 
ATOM     11  N   UNL     1      43.535   2.358  11.147  0.00  0.00    +0.000 NA
ATOM     12  C   UNL     1      44.437   3.098  10.239  0.00  0.00    +0.000 C 
ATOM     13  C   UNL     1      44.030   4.575  10.016  0.00  0.00    +0.000 C 
ATOM     14  H   UNL     1      42.596   2.383  10.749  0.00  0.00    +0.000 HD
ENDBRANCH   6   8
BRANCH   1  15
ATOM     15  C   UNL     1      44.515  10.162  11.476  0.00  0.00    +0.000 C 
BRANCH  15  16
ATOM     16  O   UNL     1      43.989  10.235  10.152  0.00  0.00    +0.000 OA
BRANCH  16  21
ATOM     17  C   UNL     1      40.411  10.765  10.573  0.00  0.00    +0.000 A 
ATOM     18  C   UNL     1      40.187  11.941   9.847  0.00  0.00    +0.000 A 
ATOM     19  C   UNL     1      41.248  12.567   9.195  0.00  0.00    +0.000 A 
ATOM     20  C   UNL     1      42.540  12.027   9.267  0.00  0.00    +0.000 A 
ATOM     21  C   UNL     1      42.777  10.860   9.997  0.00  0.00    +0.000 A 
ATOM     22  C   UNL     1      41.708  10.235  10.645  0.00  0.00    +0.000 A 
BRANCH  17  24
ATOM     23  N   UNL     1      38.439   9.568  11.758  0.00  0.00    +0.000 NA
ATOM     24  C   UNL     1      39.322  10.109  11.233  0.00  0.00    +0.000 C 
ENDBRANCH  17  24
ENDBRANCH  16  21
ENDBRANCH  15  16
ENDBRANCH   1  15
TORSDOF 5
ENDMDL
MODEL 7
REMARK VINA RESULT:    -6.233      4.399      7.385
REMARK INTER + INTRA:          -8.945
REMARK INTER:                  -8.073
REMARK INTRA:                  -0.872
REMARK UNBOUND:                -0.890
REMARK  Name = 
REMARK  5 active torsions:
REMARK  status: ('A' for Active; 'I' for Inactive)
REMARK    1  A    between atoms: C_2  and  C_3
REMARK    2  A    between atoms: C_7  and  O_8
REMARK    3  A    between atoms: O_8  and  C_9
REMARK    4  A    between atoms: C_9  and  C_10
REMARK    5  A    between atoms: C_15  and  N_16
REMARK                            x       y       z     vdW  Elec       q    Type
REMARK                         _______ _______ _______ _____ _____    ______ ____
ROOT
ATOM      1  C   UNL     1      45.790   8.405  12.121  0.00  0.00    +0.000 A 
ATOM      2  C   UNL     1      46.781   7.996  13.020  0.00  0.00    +0.000 A 
ATOM      3  C   UNL     1      46.969   6.641  13.283  0.00  0.00    +0.000 A 
ATOM      4  C   UNL     1      46.161   5.689  12.658  0.00  0.00    +0.000 A 
ATOM      5  F   UNL     1      46.394   4.398  12.946  0.00  0.00    +0.000 F 
ATOM      6  C   UNL     1      45.155   6.049  11.747  0.00  0.00    +0.000 A 
ATOM      7  C   UNL     1      45.011   7.424  11.476  0.00  0.00    +0.000 A 
ENDROOT
BRANCH   6   8
ATOM      8  N   UNL     1      44.275   5.143  11.167  0.00  0.00    +0.000 N 
ATOM      9  C   UNL     1      43.218   4.497  11.959  0.00  0.00    +0.000 C 
ATOM     10  C   UNL     1      43.433   2.975  12.081  0.00  0.00    +0.000 C 
ATOM     11  N   UNL     1      43.638   2.309  10.776  0.00  0.00    +0.000 NA
ATOM     12  C   UNL     1      44.799   2.942  10.114  0.00  0.00    +0.000 C 
ATOM     13  C   UNL     1      44.649   4.470   9.912  0.00  0.00    +0.000 C 
ATOM     14  H   UNL     1      42.813   2.485  10.203  0.00  0.00    +0.000 HD
ENDBRANCH   6   8
BRANCH   1  15
ATOM     15  C   UNL     1      45.524   9.874  11.871  0.00  0.00    +0.000 C 
BRANCH  15  16
ATOM     16  O   UNL     1      44.214  10.219  12.320  0.00  0.00    +0.000 OA
BRANCH  16  21
ATOM     17  C   UNL     1      42.993  11.066   8.996  0.00  0.00    +0.000 A 
ATOM     18  C   UNL     1      41.743  11.637   9.264  0.00  0.00    +0.000 A 
ATOM     19  C   UNL     1      41.300  11.750  10.580  0.00  0.00    +0.000 A 
ATOM     20  C   UNL     1      42.098  11.292  11.638  0.00  0.00    +0.000 A 
ATOM     21  C   UNL     1      43.343  10.712  11.382  0.00  0.00    +0.000 A 
ATOM     22  C   UNL     1      43.783  10.604  10.059  0.00  0.00    +0.000 A 
BRANCH  17  24
ATOM     23  N   UNL     1      43.852  10.874   6.556  0.00  0.00    +0.000 NA
ATOM     24  C   UNL     1      43.460  10.959   7.646  0.00  0.00    +0.000 C 
ENDBRANCH  17  24
ENDBRANCH  16  21
ENDBRANCH  15  16
ENDBRANCH   1  15
TORSDOF 5
ENDMDL
MODEL 8
REMARK VINA RESULT:    -6.107      3.852      8.080
REMARK INTER + INTRA:          -8.781
REMARK INTER:                  -8.038
REMARK INTRA:                  -0.744
REMARK UNBOUND:                -0.890
REMARK  Name = 
REMARK  5 active torsions:
REMARK  status: ('A' for Active; 'I' for Inactive)
REMARK    1  A    between atoms: C_2  and  C_3
REMARK    2  A    between atoms: C_7  and  O_8
REMARK    3  A    between atoms: O_8  and  C_9
REMARK    4  A    between atoms: C_9  and  C_10
REMARK    5  A    between atoms: C_15  and  N_16
REMARK                            x       y       z     vdW  Elec       q    Type
REMARK                         _______ _______ _______ _____ _____    ______ ____
ROOT
ATOM      1  C   UNL     1      46.908   6.552  13.527  0.00  0.00    +0.000 A 
ATOM      2  C   UNL     1      46.878   7.904  13.172  0.00  0.00    +0.000 A 
ATOM      3  C   UNL     1      45.874   8.385  12.336  0.00  0.00    +0.000 A 
ATOM      4  C   UNL     1      44.901   7.514  11.840  0.00  0.00    +0.000 A 
ATOM      5  F   UNL     1      43.954   8.036  11.044  0.00  0.00    +0.000 F 
ATOM      6  C   UNL     1      44.887   6.149  12.169  0.00  0.00    +0.000 A 
ATOM      7  C   UNL     1      45.896   5.699  13.044  0.00  0.00    +0.000 A 
ENDROOT
BRANCH   6   8
ATOM      8  N   UNL     1      43.989   5.233  11.634  0.00  0.00    +0.000 N 
ATOM      9  C   UNL     1      43.165   4.381  12.504  0.00  0.00    +0.000 C 
ATOM     10  C   UNL     1      43.525   2.888  12.362  0.00  0.00    +0.000 C 
ATOM     11  N   UNL     1      43.525   2.419  10.959  0.00  0.00    +0.000 NA
ATOM     12  C   UNL     1      44.476   3.254  10.195  0.00  0.00    +0.000 C 
ATOM     13  C   UNL     1      44.164   4.769  10.247  0.00  0.00    +0.000 C 
ATOM     14  H   UNL     1      42.592   2.576  10.578  0.00  0.00    +0.000 HD
ENDBRANCH   6   8
BRANCH   1  15
ATOM     15  C   UNL     1      48.028   5.995  14.380  0.00  0.00    +0.000 C 
BRANCH  15  16
ATOM     16  O   UNL     1      47.667   4.711  14.889  0.00  0.00    +0.000 OA
BRANCH  16  21
ATOM     17  C   UNL     1      48.785   5.440  18.276  0.00  0.00    +0.000 A 
ATOM     18  C   UNL     1      48.628   4.209  18.923  0.00  0.00    +0.000 A 
ATOM     19  C   UNL     1      48.148   3.109  18.215  0.00  0.00    +0.000 A 
ATOM     20  C   UNL     1      47.817   3.231  16.858  0.00  0.00    +0.000 A 
ATOM     21  C   UNL     1      47.961   4.457  16.205  0.00  0.00    +0.000 A 
ATOM     22  C   UNL     1      48.446   5.555  16.920  0.00  0.00    +0.000 A 
BRANCH  17  24
ATOM     23  N   UNL     1      49.699   7.496  19.568  0.00  0.00    +0.000 NA
ATOM     24  C   UNL     1      49.292   6.571  18.995  0.00  0.00    +0.000 C 
ENDBRANCH  17  24
ENDBRANCH  16  21
ENDBRANCH  15  16
ENDBRANCH   1  15
TORSDOF 5
ENDMDL
MODEL 9
REMARK VINA RESULT:    -6.032      4.307      8.641
REMARK INTER + INTRA:          -8.685
REMARK INTER:                  -7.862
REMARK INTRA:                  -0.824
REMARK UNBOUND:                -0.890
REMARK  Name = 
REMARK  5 active torsions:
REMARK  status: ('A' for Active; 'I' for Inactive)
REMARK    1  A    between atoms: C_2  and  C_3
REMARK    2  A    between atoms: C_7  and  O_8
REMARK    3  A    between atoms: O_8  and  C_9
REMARK    4  A    between atoms: C_9  and  C_10
REMARK    5  A    between atoms: C_15  and  N_16
REMARK                            x       y       z     vdW  Elec       q    Type
REMARK                         _______ _______ _______ _____ _____    ______ ____
ROOT
ATOM      1  C   UNL     1      47.998   6.550  14.063  0.00  0.00    +0.000 A 
ATOM      2  C   UNL     1      48.386   7.217  12.897  0.00  0.00    +0.000 A 
ATOM      3  C   UNL     1      47.654   7.056  11.723  0.00  0.00    +0.000 A 
ATOM      4  C   UNL     1      46.537   6.219  11.706  0.00  0.00    +0.000 A 
ATOM      5  F   UNL     1      45.867   6.108  10.548  0.00  0.00    +0.000 F 
ATOM      6  C   UNL     1      46.106   5.528  12.851  0.00  0.00    +0.000 A 
ATOM      7  C   UNL     1      46.847   5.738  14.031  0.00  0.00    +0.000 A 
ENDROOT
BRANCH   6   8
ATOM      8  N   UNL     1      45.052   4.622  12.858  0.00  0.00    +0.000 N 
ATOM      9  C   UNL     1      45.200   3.281  12.274  0.00  0.00    +0.000 C 
ATOM     10  C   UNL     1      44.298   3.084  11.038  0.00  0.00    +0.000 C 
ATOM     11  N   UNL     1      42.882   3.431  11.289  0.00  0.00    +0.000 NA
ATOM     12  C   UNL     1      42.827   4.835  11.751  0.00  0.00    +0.000 C 
ATOM     13  C   UNL     1      43.673   5.114  13.016  0.00  0.00    +0.000 C 
ATOM     14  H   UNL     1      42.545   2.837  12.048  0.00  0.00    +0.000 HD
ENDBRANCH   6   8
BRANCH   1  15
ATOM     15  C   UNL     1      48.818   6.657  15.332  0.00  0.00    +0.000 C 
BRANCH  15  16
ATOM     16  O   UNL     1      49.088   5.357  15.854  0.00  0.00    +0.000 OA
BRANCH  16  21
ATOM     17  C   UNL     1      48.598   6.306  19.334  0.00  0.00    +0.000 A 
ATOM     18  C   UNL     1      48.467   5.069  19.975  0.00  0.00    +0.000 A 
ATOM     19  C   UNL     1      48.551   3.891  19.234  0.00  0.00    +0.000 A 
ATOM     20  C   UNL     1      48.764   3.941  17.849  0.00  0.00    +0.000 A 
ATOM     21  C   UNL     1      48.887   5.171  17.198  0.00  0.00    +0.000 A 
ATOM     22  C   UNL     1      48.805   6.347  17.947  0.00  0.00    +0.000 A 
BRANCH  17  24
ATOM     23  N   UNL     1      48.458   8.498  20.714  0.00  0.00    +0.000 NA
ATOM     24  C   UNL     1      48.526   7.520  20.092  0.00  0.00    +0.000 C 
ENDBRANCH  17  24
ENDBRANCH  16  21
ENDBRANCH  15  16
ENDBRANCH   1  15
TORSDOF 5
ENDMDL
