MODEL 1
REMARK VINA RESULT:    -7.222      0.000      0.000
REMARK INTER + INTRA:          -9.807
REMARK INTER:                  -9.755
REMARK INTRA:                  -0.052
REMARK UNBOUND:                -0.052
REMARK  Name = 
REMARK  7 active torsions:
REMARK  status: ('A' for Active; 'I' for Inactive)
REMARK    1  A    between atoms: C_1  and  O_2
REMARK    2  A    between atoms: O_2  and  C_3
REMARK    3  A    between atoms: C_5  and  C_6
REMARK    4  A    between atoms: C_10  and  N_11
REMARK    5  A    between atoms: N_11  and  C_12
REMARK    6  A    between atoms: C_12  and  C_13
REMARK    7  A    between atoms: C_17  and  C_18
REMARK                            x       y       z     vdW  Elec       q    Type
REMARK                         _______ _______ _______ _____ _____    ______ ____
ROOT
ATOM      1  C   UNL     1      44.868   6.349  11.671  0.00  0.00    +0.000 C 
ATOM      2  C   UNL     1      45.941   5.456  12.285  0.00  0.00    +0.000 C 
ATOM      3  C   UNL     1      44.629   5.621  12.978  0.00  0.00    +0.000 C 
ENDROOT
BRANCH   1   4
ATOM      4  C   UNL     1      45.069   7.860  11.706  0.00  0.00    +0.000 A 
ATOM      5  C   UNL     1      46.199   8.467  12.267  0.00  0.00    +0.000 A 
ATOM      6  C   UNL     1      46.408   9.843  12.149  0.00  0.00    +0.000 A 
ATOM      7  C   UNL     1      45.503  10.636  11.439  0.00  0.00    +0.000 A 
ATOM      8  C   UNL     1      44.347  10.081  10.884  0.00  0.00    +0.000 A 
ATOM      9  C   UNL     1      44.146   8.704  11.065  0.00  0.00    +0.000 A 
BRANCH   8  10
ATOM     10  C   UNL     1      43.365  10.829   9.984  0.00  0.00    +0.000 C 
ATOM     11  C   UNL     1      43.420  12.363  10.055  0.00  0.00    +0.000 C 
ATOM     12  C   UNL     1      42.728  12.904  11.308  0.00  0.00    +0.000 C 
ATOM     13  N   UNL     1      41.343  12.447  11.414  0.00  0.00    +0.000 NA
ATOM     14  C   UNL     1      41.266  10.984  11.411  0.00  0.00    +0.000 C 
ATOM     15  C   UNL     1      41.897  10.387  10.156  0.00  0.00    +0.000 C 
ATOM     16  H   UNL     1      40.810  12.811  10.625  0.00  0.00    +0.000 HD
ENDBRANCH   8  10
ENDBRANCH   1   4
BRANCH   1  17
ATOM     17  N   UNL     1      44.336   5.849  10.400  0.00  0.00    +0.000 N 
ATOM     18  H   UNL     1      43.337   5.954  10.248  0.00  0.00    +0.000 HD
BRANCH  17  24
ATOM     19  C   UNL     1      44.274   3.407   9.827  0.00  0.00    +0.000 A 
ATOM     20  C   UNL     1      44.874   2.406   9.048  0.00  0.00    +0.000 A 
ATOM     21  C   UNL     1      45.907   2.722   8.171  0.00  0.00    +0.000 A 
ATOM     22  C   UNL     1      46.296   4.042   8.079  0.00  0.00    +0.000 A 
ATOM     23  N   UNL     1      45.728   5.034   8.794  0.00  0.00    +0.000 NA
ATOM     24  C   UNL     1      44.732   4.729   9.670  0.00  0.00    +0.000 A 
BRANCH  19  26
ATOM     25  C   UNL     1      43.617   2.426  11.916  0.00  0.00    +0.000 C 
ATOM     26  O   UNL     1      43.287   3.149  10.736  0.00  0.00    +0.000 OA
ENDBRANCH  19  26
BRANCH  21  27
ATOM     27  C   UNL     1      46.569   1.713   7.409  0.00  0.00    +0.000 C 
ATOM     28  N   UNL     1      47.107   0.886   6.798  0.00  0.00    +0.000 NA
ENDBRANCH  21  27
ENDBRANCH  17  24
ENDBRANCH   1  17
TORSDOF 6
ENDMDL
MODEL 2
REMARK VINA RESULT:    -7.092      2.209      4.245
REMARK INTER + INTRA:          -9.631
REMARK INTER:                  -9.586
REMARK INTRA:                  -0.045
REMARK UNBOUND:                -0.052
REMARK  Name = 
REMARK  7 active torsions:
REMARK  status: ('A' for Active; 'I' for Inactive)
REMARK    1  A    between atoms: C_1  and  O_2
REMARK    2  A    between atoms: O_2  and  C_3
REMARK    3  A    between atoms: C_5  and  C_6
REMARK    4  A    between atoms: C_10  and  N_11
REMARK    5  A    between atoms: N_11  and  C_12
REMARK    6  A    between atoms: C_12  and  C_13
REMARK    7  A    between atoms: C_17  and  C_18
REMARK                            x       y       z     vdW  Elec       q    Type
REMARK                         _______ _______ _______ _____ _____    ______ ____
ROOT
ATOM      1  C   UNL     1      44.876   6.248  11.691  0.00  0.00    +0.000 C 
ATOM      2  C   UNL     1      45.521   5.146  12.523  0.00  0.00    +0.000 C 
ATOM      3  C   UNL     1      44.238   5.761  12.975  0.00  0.00    +0.000 C 
ENDROOT
BRANCH   1   4
ATOM      4  C   UNL     1      45.525   7.627  11.678  0.00  0.00    +0.000 A 
ATOM      5  C   UNL     1      44.788   8.818  11.675  0.00  0.00    +0.000 A 
ATOM      6  C   UNL     1      45.422  10.055  11.808  0.00  0.00    +0.000 A 
ATOM      7  C   UNL     1      46.807  10.124  11.977  0.00  0.00    +0.000 A 
ATOM      8  C   UNL     1      47.589   8.966  11.959  0.00  0.00    +0.000 A 
ATOM      9  C   UNL     1      46.922   7.745  11.774  0.00  0.00    +0.000 A 
BRANCH   8  10
ATOM     10  C   UNL     1      49.085   8.919  12.261  0.00  0.00    +0.000 C 
ATOM     11  C   UNL     1      49.640   7.556  12.707  0.00  0.00    +0.000 C 
ATOM     12  C   UNL     1      49.305   7.251  14.167  0.00  0.00    +0.000 C 
ATOM     13  N   UNL     1      49.773   8.301  15.072  0.00  0.00    +0.000 NA
ATOM     14  C   UNL     1      49.209   9.603  14.707  0.00  0.00    +0.000 C 
ATOM     15  C   UNL     1      49.554   9.987  13.271  0.00  0.00    +0.000 C 
ATOM     16  H   UNL     1      50.790   8.353  15.026  0.00  0.00    +0.000 HD
ENDBRANCH   8  10
ENDBRANCH   1   4
BRANCH   1  17
ATOM     17  N   UNL     1      44.406   5.801  10.376  0.00  0.00    +0.000 N 
ATOM     18  H   UNL     1      43.428   5.970  10.157  0.00  0.00    +0.000 HD
BRANCH  17  24
ATOM     19  C   UNL     1      44.290   3.359   9.809  0.00  0.00    +0.000 A 
ATOM     20  C   UNL     1      44.874   2.341   9.041  0.00  0.00    +0.000 A 
ATOM     21  C   UNL     1      45.926   2.627   8.177  0.00  0.00    +0.000 A 
ATOM     22  C   UNL     1      46.349   3.937   8.086  0.00  0.00    +0.000 A 
ATOM     23  N   UNL     1      45.797   4.945   8.791  0.00  0.00    +0.000 NA
ATOM     24  C   UNL     1      44.782   4.669   9.655  0.00  0.00    +0.000 A 
BRANCH  19  26
ATOM     25  C   UNL     1      43.559   2.324  11.847  0.00  0.00    +0.000 C 
ATOM     26  O   UNL     1      43.285   3.128  10.707  0.00  0.00    +0.000 OA
ENDBRANCH  19  26
BRANCH  21  27
ATOM     27  C   UNL     1      46.573   1.600   7.427  0.00  0.00    +0.000 C 
ATOM     28  N   UNL     1      47.108   0.770   6.817  0.00  0.00    +0.000 NA
ENDBRANCH  21  27
ENDBRANCH  17  24
ENDBRANCH   1  17
TORSDOF 6
ENDMDL
MODEL 3
REMARK VINA RESULT:    -6.720      2.962      7.753
REMARK INTER + INTRA:          -9.129
REMARK INTER:                  -8.394
REMARK INTRA:                  -0.735
REMARK UNBOUND:                -0.052
REMARK  Name = 
REMARK  7 active torsions:
REMARK  status: ('A' for Active; 'I' for Inactive)
REMARK    1  A    between atoms: C_1  and  O_2
REMARK    2  A    between atoms: O_2  and  C_3
REMARK    3  A    between atoms: C_5  and  C_6
REMARK    4  A    between atoms: C_10  and  N_11
REMARK    5  A    between atoms: N_11  and  C_12
REMARK    6  A    between atoms: C_12  and  C_13
REMARK    7  A    between atoms: C_17  and  C_18
REMARK                            x       y       z     vdW  Elec       q    Type
REMARK                         _______ _______ _______ _____ _____    ______ ____
ROOT
ATOM      1  C   UNL     1      48.174   7.939  12.509  0.00  0.00    +0.000 C 
ATOM      2  C   UNL     1      49.664   7.956  12.832  0.00  0.00    +0.000 C 
ATOM      3  C   UNL     1      49.214   7.996  11.408  0.00  0.00    +0.000 C 
ENDROOT
BRANCH   1   4
ATOM      4  C   UNL     1      47.399   6.641  12.712  0.00  0.00    +0.000 A 
ATOM      5  C   UNL     1      47.501   5.866  13.874  0.00  0.00    +0.000 A 
ATOM      6  C   UNL     1      46.667   4.764  14.076  0.00  0.00    +0.000 A 
ATOM      7  C   UNL     1      45.692   4.433  13.131  0.00  0.00    +0.000 A 
ATOM      8  C   UNL     1      45.570   5.160  11.944  0.00  0.00    +0.000 A 
ATOM      9  C   UNL     1      46.457   6.231  11.754  0.00  0.00    +0.000 A 
BRANCH   8  10
ATOM     10  C   UNL     1      44.462   4.965  10.912  0.00  0.00    +0.000 C 
ATOM     11  C   UNL     1      43.189   4.263  11.412  0.00  0.00    +0.000 C 
ATOM     12  C   UNL     1      43.379   2.752  11.536  0.00  0.00    +0.000 C 
ATOM     13  N   UNL     1      43.823   2.146  10.280  0.00  0.00    +0.000 NA
ATOM     14  C   UNL     1      45.070   2.755   9.811  0.00  0.00    +0.000 C 
ATOM     15  C   UNL     1      44.927   4.262   9.619  0.00  0.00    +0.000 C 
ATOM     16  H   UNL     1      43.101   2.277   9.573  0.00  0.00    +0.000 HD
ENDBRANCH   8  10
ENDBRANCH   1   4
BRANCH   1  17
ATOM     17  N   UNL     1      47.456   9.136  12.957  0.00  0.00    +0.000 N 
ATOM     18  H   UNL     1      47.114   9.133  13.914  0.00  0.00    +0.000 HD
BRANCH  17  24
ATOM     19  C   UNL     1      46.936  11.123  11.516  0.00  0.00    +0.000 A 
ATOM     20  C   UNL     1      45.897  11.861  10.929  0.00  0.00    +0.000 A 
ATOM     21  C   UNL     1      44.574  11.458  11.081  0.00  0.00    +0.000 A 
ATOM     22  C   UNL     1      44.328  10.306  11.799  0.00  0.00    +0.000 A 
ATOM     23  N   UNL     1      45.302   9.558  12.358  0.00  0.00    +0.000 NA
ATOM     24  C   UNL     1      46.597   9.959  12.232  0.00  0.00    +0.000 A 
BRANCH  19  26
ATOM     25  C   UNL     1      48.857  11.587  10.156  0.00  0.00    +0.000 C 
ATOM     26  O   UNL     1      48.248  11.496  11.438  0.00  0.00    +0.000 OA
ENDBRANCH  19  26
BRANCH  21  27
ATOM     27  C   UNL     1      43.498  12.222  10.541  0.00  0.00    +0.000 C 
ATOM     28  N   UNL     1      42.628  12.848  10.094  0.00  0.00    +0.000 NA
ENDBRANCH  21  27
ENDBRANCH  17  24
ENDBRANCH   1  17
TORSDOF 6
ENDMDL
MODEL 4
REMARK VINA RESULT:    -6.650      4.546      7.617
REMARK INTER + INTRA:          -9.034
REMARK INTER:                  -7.846
REMARK INTRA:                  -1.188
REMARK UNBOUND:                -0.052
REMARK  Name = 
REMARK  7 active torsions:
REMARK  status: ('A' for Active; 'I' for Inactive)
REMARK    1  A    between atoms: C_1  and  O_2
REMARK    2  A    between atoms: O_2  and  C_3
REMARK    3  A    between atoms: C_5  and  C_6
REMARK    4  A    between atoms: C_10  and  N_11
REMARK    5  A    between atoms: N_11  and  C_12
REMARK    6  A    between atoms: C_12  and  C_13
REMARK    7  A    between atoms: C_17  and  C_18
REMARK                            x       y       z     vdW  Elec       q    Type
REMARK                         _______ _______ _______ _____ _____    ______ ____
ROOT
ATOM      1  C   UNL     1      49.035   7.876  12.416  0.00  0.00    +0.000 C 
ATOM      2  C   UNL     1      49.829   7.780  11.118  0.00  0.00    +0.000 C 
ATOM      3  C   UNL     1      49.895   9.027  11.937  0.00  0.00    +0.000 C 
ENDROOT
BRANCH   1   4
ATOM      4  C   UNL     1      47.519   8.016  12.336  0.00  0.00    +0.000 A 
ATOM      5  C   UNL     1      46.856   9.239  12.499  0.00  0.00    +0.000 A 
ATOM      6  C   UNL     1      45.482   9.346  12.275  0.00  0.00    +0.000 A 
ATOM      7  C   UNL     1      44.747   8.235  11.853  0.00  0.00    +0.000 A 
ATOM      8  C   UNL     1      45.358   6.988  11.702  0.00  0.00    +0.000 A 
ATOM      9  C   UNL     1      46.731   6.908  11.983  0.00  0.00    +0.000 A 
BRANCH   8  10
ATOM     10  C   UNL     1      44.679   5.748  11.125  0.00  0.00    +0.000 C 
ATOM     11  C   UNL     1      43.177   5.602  11.420  0.00  0.00    +0.000 C 
ATOM     12  C   UNL     1      42.918   5.116  12.847  0.00  0.00    +0.000 C 
ATOM     13  N   UNL     1      43.609   3.859  13.136  0.00  0.00    +0.000 NA
ATOM     14  C   UNL     1      45.052   3.987  12.923  0.00  0.00    +0.000 C 
ATOM     15  C   UNL     1      45.376   4.422  11.496  0.00  0.00    +0.000 C 
ATOM     16  H   UNL     1      43.243   3.130  12.525  0.00  0.00    +0.000 HD
ENDBRANCH   8  10
ENDBRANCH   1   4
BRANCH   1  17
ATOM     17  N   UNL     1      49.491   6.953  13.460  0.00  0.00    +0.000 N 
ATOM     18  H   UNL     1      49.681   5.996  13.175  0.00  0.00    +0.000 HD
BRANCH  17  24
ATOM     19  C   UNL     1      49.317   7.887  15.782  0.00  0.00    +0.000 A 
ATOM     20  C   UNL     1      48.943   7.592  17.102  0.00  0.00    +0.000 A 
ATOM     21  C   UNL     1      48.412   6.345  17.420  0.00  0.00    +0.000 A 
ATOM     22  C   UNL     1      48.247   5.433  16.399  0.00  0.00    +0.000 A 
ATOM     23  N   UNL     1      48.575   5.689  15.116  0.00  0.00    +0.000 NA
ATOM     24  C   UNL     1      49.114   6.898  14.801  0.00  0.00    +0.000 A 
BRANCH  19  26
ATOM     25  C   UNL     1      49.065  10.238  15.374  0.00  0.00    +0.000 C 
ATOM     26  O   UNL     1      49.884   9.076  15.421  0.00  0.00    +0.000 OA
ENDBRANCH  19  26
BRANCH  21  27
ATOM     27  C   UNL     1      48.075   6.002  18.763  0.00  0.00    +0.000 C 
ATOM     28  N   UNL     1      47.794   5.715  19.853  0.00  0.00    +0.000 NA
ENDBRANCH  21  27
ENDBRANCH  17  24
ENDBRANCH   1  17
TORSDOF 6
ENDMDL
MODEL 5
REMARK VINA RESULT:    -6.577      5.094      7.708
REMARK INTER + INTRA:          -8.936
REMARK INTER:                  -8.060
REMARK INTRA:                  -0.875
REMARK UNBOUND:                -0.052
REMARK  Name = 
REMARK  7 active torsions:
REMARK  status: ('A' for Active; 'I' for Inactive)
REMARK    1  A    between atoms: C_1  and  O_2
REMARK    2  A    between atoms: O_2  and  C_3
REMARK    3  A    between atoms: C_5  and  C_6
REMARK    4  A    between atoms: C_10  and  N_11
REMARK    5  A    between atoms: N_11  and  C_12
REMARK    6  A    between atoms: C_12  and  C_13
REMARK    7  A    between atoms: C_17  and  C_18
REMARK                            x       y       z     vdW  Elec       q    Type
REMARK                         _______ _______ _______ _____ _____    ______ ____
ROOT
ATOM      1  C   UNL     1      48.172   7.355  13.850  0.00  0.00    +0.000 C 
ATOM      2  C   UNL     1      48.740   8.281  12.780  0.00  0.00    +0.000 C 
ATOM      3  C   UNL     1      49.190   6.858  12.843  0.00  0.00    +0.000 C 
ENDROOT
BRANCH   1   4
ATOM      4  C   UNL     1      48.614   7.552  15.295  0.00  0.00    +0.000 A 
ATOM      5  C   UNL     1      48.220   8.650  16.071  0.00  0.00    +0.000 A 
ATOM      6  C   UNL     1      48.531   8.717  17.431  0.00  0.00    +0.000 A 
ATOM      7  C   UNL     1      49.219   7.671  18.050  0.00  0.00    +0.000 A 
ATOM      8  C   UNL     1      49.657   6.567  17.314  0.00  0.00    +0.000 A 
ATOM      9  C   UNL     1      49.369   6.557  15.940  0.00  0.00    +0.000 A 
BRANCH   8  10
ATOM     10  C   UNL     1      50.298   5.317  17.912  0.00  0.00    +0.000 C 
ATOM     11  C   UNL     1      49.646   3.977  17.535  0.00  0.00    +0.000 C 
ATOM     12  C   UNL     1      48.357   3.727  18.319  0.00  0.00    +0.000 C 
ATOM     13  N   UNL     1      48.569   3.790  19.765  0.00  0.00    +0.000 NA
ATOM     14  C   UNL     1      49.134   5.083  20.161  0.00  0.00    +0.000 C 
ATOM     15  C   UNL     1      50.453   5.366  19.447  0.00  0.00    +0.000 C 
ATOM     16  H   UNL     1      49.210   3.047  20.041  0.00  0.00    +0.000 HD
ENDBRANCH   8  10
ENDBRANCH   1   4
BRANCH   1  17
ATOM     17  N   UNL     1      46.740   7.083  13.699  0.00  0.00    +0.000 N 
ATOM     18  H   UNL     1      46.152   7.263  14.507  0.00  0.00    +0.000 HD
BRANCH  17  24
ATOM     19  C   UNL     1      45.910   4.736  13.384  0.00  0.00    +0.000 A 
ATOM     20  C   UNL     1      45.343   3.844  12.461  0.00  0.00    +0.000 A 
ATOM     21  C   UNL     1      45.025   4.270  11.175  0.00  0.00    +0.000 A 
ATOM     22  C   UNL     1      45.261   5.591  10.856  0.00  0.00    +0.000 A 
ATOM     23  N   UNL     1      45.783   6.482  11.723  0.00  0.00    +0.000 NA
ATOM     24  C   UNL     1      46.117   6.067  12.976  0.00  0.00    +0.000 A 
BRANCH  19  26
ATOM     25  C   UNL     1      47.423   3.523  14.799  0.00  0.00    +0.000 C 
ATOM     26  O   UNL     1      46.284   4.361  14.644  0.00  0.00    +0.000 OA
ENDBRANCH  19  26
BRANCH  21  27
ATOM     27  C   UNL     1      44.499   3.369  10.202  0.00  0.00    +0.000 C 
ATOM     28  N   UNL     1      44.081   2.635   9.406  0.00  0.00    +0.000 NA
ENDBRANCH  21  27
ENDBRANCH  17  24
ENDBRANCH   1  17
TORSDOF 6
ENDMDL
MODEL 6
REMARK VINA RESULT:    -6.555      4.568      7.635
REMARK INTER + INTRA:          -8.906
REMARK INTER:                  -7.860
REMARK INTRA:                  -1.046
REMARK UNBOUND:                -0.052
REMARK  Name = 
REMARK  7 active torsions:
REMARK  status: ('A' for Active; 'I' for Inactive)
REMARK    1  A    between atoms: C_1  and  O_2
REMARK    2  A    between atoms: O_2  and  C_3
REMARK    3  A    between atoms: C_5  and  C_6
REMARK    4  A    between atoms: C_10  and  N_11
REMARK    5  A    between atoms: N_11  and  C_12
REMARK    6  A    between atoms: C_12  and  C_13
REMARK    7  A    between atoms: C_17  and  C_18
REMARK                            x       y       z     vdW  Elec       q    Type
REMARK                         _______ _______ _______ _____ _____    ______ ____
ROOT
ATOM      1  C   UNL     1      49.034   7.823  12.497  0.00  0.00    +0.000 C 
ATOM      2  C   UNL     1      49.856   7.722  11.216  0.00  0.00    +0.000 C 
ATOM      3  C   UNL     1      49.891   8.979  12.022  0.00  0.00    +0.000 C 
ENDROOT
BRANCH   1   4
ATOM      4  C   UNL     1      47.518   7.946  12.383  0.00  0.00    +0.000 A 
ATOM      5  C   UNL     1      46.838   9.162  12.527  0.00  0.00    +0.000 A 
ATOM      6  C   UNL     1      45.468   9.252  12.273  0.00  0.00    +0.000 A 
ATOM      7  C   UNL     1      44.755   8.132  11.840  0.00  0.00    +0.000 A 
ATOM      8  C   UNL     1      45.383   6.891  11.706  0.00  0.00    +0.000 A 
ATOM      9  C   UNL     1      46.750   6.828  12.017  0.00  0.00    +0.000 A 
BRANCH   8  10
ATOM     10  C   UNL     1      44.731   5.641  11.120  0.00  0.00    +0.000 C 
ATOM     11  C   UNL     1      43.231   5.465  11.407  0.00  0.00    +0.000 C 
ATOM     12  C   UNL     1      42.974   4.967  12.829  0.00  0.00    +0.000 C 
ATOM     13  N   UNL     1      43.688   3.722  13.115  0.00  0.00    +0.000 NA
ATOM     14  C   UNL     1      45.130   3.879  12.909  0.00  0.00    +0.000 C 
ATOM     15  C   UNL     1      45.452   4.327  11.487  0.00  0.00    +0.000 C 
ATOM     16  H   UNL     1      43.340   2.989  12.498  0.00  0.00    +0.000 HD
ENDBRANCH   8  10
ENDBRANCH   1   4
BRANCH   1  17
ATOM     17  N   UNL     1      49.478   6.917  13.560  0.00  0.00    +0.000 N 
ATOM     18  H   UNL     1      49.452   5.922  13.354  0.00  0.00    +0.000 HD
BRANCH  17  24
ATOM     19  C   UNL     1      48.631   6.154  15.795  0.00  0.00    +0.000 A 
ATOM     20  C   UNL     1      48.495   6.515  17.143  0.00  0.00    +0.000 A 
ATOM     21  C   UNL     1      48.997   7.729  17.600  0.00  0.00    +0.000 A 
ATOM     22  C   UNL     1      49.647   8.542  16.695  0.00  0.00    +0.000 A 
ATOM     23  N   UNL     1      49.816   8.218  15.396  0.00  0.00    +0.000 NA
ATOM     24  C   UNL     1      49.309   7.041  14.938  0.00  0.00    +0.000 A 
BRANCH  19  26
ATOM     25  C   UNL     1      47.385   4.133  16.142  0.00  0.00    +0.000 C 
ATOM     26  O   UNL     1      48.118   4.995  15.282  0.00  0.00    +0.000 OA
ENDBRANCH  19  26
BRANCH  21  27
ATOM     27  C   UNL     1      48.823   8.144  18.954  0.00  0.00    +0.000 C 
ATOM     28  N   UNL     1      48.685   8.472  20.059  0.00  0.00    +0.000 NA
ENDBRANCH  21  27
ENDBRANCH  17  24
ENDBRANCH   1  17
TORSDOF 6
ENDMDL
MODEL 7
REMARK VINA RESULT:    -6.365      4.665      7.785
REMARK INTER + INTRA:          -8.650
REMARK INTER:                  -7.868
REMARK INTRA:                  -0.781
REMARK UNBOUND:                -0.052
REMARK  Name = 
REMARK  7 active torsions:
REMARK  status: ('A' for Active; 'I' for Inactive)
REMARK    1  A    between atoms: C_1  and  O_2
REMARK    2  A    between atoms: O_2  and  C_3
REMARK    3  A    between atoms: C_5  and  C_6
REMARK    4  A    between atoms: C_10  and  N_11
REMARK    5  A    between atoms: N_11  and  C_12
REMARK    6  A    between atoms: C_12  and  C_13
REMARK    7  A    between atoms: C_17  and  C_18
REMARK                            x       y       z     vdW  Elec       q    Type
REMARK                         _______ _______ _______ _____ _____    ______ ____
ROOT
ATOM      1  C   UNL     1      48.367   8.091  13.672  0.00  0.00    +0.000 C 
ATOM      2  C   UNL     1      48.515   9.570  13.333  0.00  0.00    +0.000 C 
ATOM      3  C   UNL     1      48.857   8.537  12.310  0.00  0.00    +0.000 C 
ENDROOT
BRANCH   1   4
ATOM      4  C   UNL     1      49.367   7.460  14.635  0.00  0.00    +0.000 A 
ATOM      5  C   UNL     1      50.727   7.797  14.653  0.00  0.00    +0.000 A 
ATOM      6  C   UNL     1      51.576   7.301  15.644  0.00  0.00    +0.000 A 
ATOM      7  C   UNL     1      51.075   6.479  16.657  0.00  0.00    +0.000 A 
ATOM      8  C   UNL     1      49.733   6.092  16.666  0.00  0.00    +0.000 A 
ATOM      9  C   UNL     1      48.920   6.571  15.627  0.00  0.00    +0.000 A 
BRANCH   8  10
ATOM     10  C   UNL     1      49.058   5.308  17.790  0.00  0.00    +0.000 C 
ATOM     11  C   UNL     1      49.860   4.129  18.365  0.00  0.00    +0.000 C 
ATOM     12  C   UNL     1      49.819   2.907  17.448  0.00  0.00    +0.000 C 
ATOM     13  N   UNL     1      48.450   2.484  17.152  0.00  0.00    +0.000 NA
ATOM     14  C   UNL     1      47.679   3.571  16.545  0.00  0.00    +0.000 C 
ATOM     15  C   UNL     1      47.641   4.806  17.441  0.00  0.00    +0.000 C 
ATOM     16  H   UNL     1      47.996   2.195  18.018  0.00  0.00    +0.000 HD
ENDBRANCH   8  10
ENDBRANCH   1   4
BRANCH   1  17
ATOM     17  N   UNL     1      46.981   7.669  13.896  0.00  0.00    +0.000 N 
ATOM     18  H   UNL     1      46.685   7.562  14.862  0.00  0.00    +0.000 HD
BRANCH  17  24
ATOM     19  C   UNL     1      45.344   7.108  12.079  0.00  0.00    +0.000 A 
ATOM     20  C   UNL     1      44.581   6.075  11.515  0.00  0.00    +0.000 A 
ATOM     21  C   UNL     1      44.665   4.782  12.022  0.00  0.00    +0.000 A 
ATOM     22  C   UNL     1      45.534   4.552  13.068  0.00  0.00    +0.000 A 
ATOM     23  N   UNL     1      46.300   5.516  13.620  0.00  0.00    +0.000 NA
ATOM     24  C   UNL     1      46.207   6.787  13.144  0.00  0.00    +0.000 A 
BRANCH  19  26
ATOM     25  C   UNL     1      44.064   8.855  11.046  0.00  0.00    +0.000 C 
ATOM     26  O   UNL     1      45.269   8.404  11.652  0.00  0.00    +0.000 OA
ENDBRANCH  19  26
BRANCH  21  27
ATOM     27  C   UNL     1      43.858   3.726  11.502  0.00  0.00    +0.000 C 
ATOM     28  N   UNL     1      43.194   2.869  11.087  0.00  0.00    +0.000 NA
ENDBRANCH  21  27
ENDBRANCH  17  24
ENDBRANCH   1  17
TORSDOF 6
ENDMDL
MODEL 8
REMARK VINA RESULT:    -6.360      6.616      9.737
REMARK INTER + INTRA:          -8.643
REMARK INTER:                  -7.581
REMARK INTRA:                  -1.062
REMARK UNBOUND:                -0.052
REMARK  Name = 
REMARK  7 active torsions:
REMARK  status: ('A' for Active; 'I' for Inactive)
REMARK    1  A    between atoms: C_1  and  O_2
REMARK    2  A    between atoms: O_2  and  C_3
REMARK    3  A    between atoms: C_5  and  C_6
REMARK    4  A    between atoms: C_10  and  N_11
REMARK    5  A    between atoms: N_11  and  C_12
REMARK    6  A    between atoms: C_12  and  C_13
REMARK    7  A    between atoms: C_17  and  C_18
REMARK                            x       y       z     vdW  Elec       q    Type
REMARK                         _______ _______ _______ _____ _____    ______ ____
ROOT
ATOM      1  C   UNL     1      47.978   3.508  16.867  0.00  0.00    +0.000 C 
ATOM      2  C   UNL     1      46.839   3.017  17.755  0.00  0.00    +0.000 C 
ATOM      3  C   UNL     1      47.199   4.466  17.745  0.00  0.00    +0.000 C 
ENDROOT
BRANCH   1   4
ATOM      4  C   UNL     1      49.410   3.161  17.259  0.00  0.00    +0.000 A 
ATOM      5  C   UNL     1      49.984   1.906  17.019  0.00  0.00    +0.000 A 
ATOM      6  C   UNL     1      51.340   1.679  17.264  0.00  0.00    +0.000 A 
ATOM      7  C   UNL     1      52.157   2.714  17.727  0.00  0.00    +0.000 A 
ATOM      8  C   UNL     1      51.625   3.976  18.007  0.00  0.00    +0.000 A 
ATOM      9  C   UNL     1      50.249   4.152  17.795  0.00  0.00    +0.000 A 
BRANCH   8  10
ATOM     10  C   UNL     1      52.447   5.204  18.391  0.00  0.00    +0.000 C 
ATOM     11  C   UNL     1      52.045   6.524  17.713  0.00  0.00    +0.000 C 
ATOM     12  C   UNL     1      52.545   6.603  16.271  0.00  0.00    +0.000 C 
ATOM     13  N   UNL     1      53.993   6.415  16.177  0.00  0.00    +0.000 NA
ATOM     14  C   UNL     1      54.398   5.134  16.761  0.00  0.00    +0.000 C 
ATOM     15  C   UNL     1      53.970   5.016  18.221  0.00  0.00    +0.000 C 
ATOM     16  H   UNL     1      54.460   7.172  16.675  0.00  0.00    +0.000 HD
ENDBRANCH   8  10
ENDBRANCH   1   4
BRANCH   1  17
ATOM     17  N   UNL     1      47.708   3.381  15.432  0.00  0.00    +0.000 N 
ATOM     18  H   UNL     1      48.347   2.802  14.895  0.00  0.00    +0.000 HD
BRANCH  17  24
ATOM     19  C   UNL     1      47.745   5.611  14.283  0.00  0.00    +0.000 A 
ATOM     20  C   UNL     1      47.028   6.462  13.428  0.00  0.00    +0.000 A 
ATOM     21  C   UNL     1      45.811   6.056  12.890  0.00  0.00    +0.000 A 
ATOM     22  C   UNL     1      45.354   4.794  13.205  0.00  0.00    +0.000 A 
ATOM     23  N   UNL     1      46.026   3.940  14.005  0.00  0.00    +0.000 NA
ATOM     24  C   UNL     1      47.207   4.338  14.552  0.00  0.00    +0.000 A 
BRANCH  19  26
ATOM     25  C   UNL     1      48.955   7.156  15.665  0.00  0.00    +0.000 C 
ATOM     26  O   UNL     1      48.922   5.974  14.875  0.00  0.00    +0.000 OA
ENDBRANCH  19  26
BRANCH  21  27
ATOM     27  C   UNL     1      45.038   6.924  12.063  0.00  0.00    +0.000 C 
ATOM     28  N   UNL     1      44.400   7.626  11.393  0.00  0.00    +0.000 NA
ENDBRANCH  21  27
ENDBRANCH  17  24
ENDBRANCH   1  17
TORSDOF 6
ENDMDL
MODEL 9
REMARK VINA RESULT:    -6.256      4.842      7.911
REMARK INTER + INTRA:          -8.503
REMARK INTER:                  -7.571
REMARK INTRA:                  -0.931
REMARK UNBOUND:                -0.052
REMARK  Name = 
REMARK  7 active torsions:
REMARK  status: ('A' for Active; 'I' for Inactive)
REMARK    1  A    between atoms: C_1  and  O_2
REMARK    2  A    between atoms: O_2  and  C_3
REMARK    3  A    between atoms: C_5  and  C_6
REMARK    4  A    between atoms: C_10  and  N_11
REMARK    5  A    between atoms: N_11  and  C_12
REMARK    6  A    between atoms: C_12  and  C_13
REMARK    7  A    between atoms: C_17  and  C_18
REMARK                            x       y       z     vdW  Elec       q    Type
REMARK                         _______ _______ _______ _____ _____    ______ ____
ROOT
ATOM      1  C   UNL     1      50.110   8.021  13.575  0.00  0.00    +0.000 C 
ATOM      2  C   UNL     1      50.463   9.250  12.744  0.00  0.00    +0.000 C 
ATOM      3  C   UNL     1      51.552   8.392  13.297  0.00  0.00    +0.000 C 
ENDROOT
BRANCH   1   4
ATOM      4  C   UNL     1      49.564   8.225  14.984  0.00  0.00    +0.000 A 
ATOM      5  C   UNL     1      48.787   9.332  15.349  0.00  0.00    +0.000 A 
ATOM      6  C   UNL     1      48.190   9.406  16.609  0.00  0.00    +0.000 A 
ATOM      7  C   UNL     1      48.333   8.357  17.520  0.00  0.00    +0.000 A 
ATOM      8  C   UNL     1      49.119   7.244  17.213  0.00  0.00    +0.000 A 
ATOM      9  C   UNL     1      49.744   7.227  15.956  0.00  0.00    +0.000 A 
BRANCH   8  10
ATOM     10  C   UNL     1      49.236   5.992  18.080  0.00  0.00    +0.000 C 
ATOM     11  C   UNL     1      49.161   4.648  17.338  0.00  0.00    +0.000 C 
ATOM     12  C   UNL     1      47.726   4.285  16.955  0.00  0.00    +0.000 C 
ATOM     13  N   UNL     1      46.833   4.266  18.114  0.00  0.00    +0.000 NA
ATOM     14  C   UNL     1      46.838   5.558  18.806  0.00  0.00    +0.000 C 
ATOM     15  C   UNL     1      48.241   5.951  19.259  0.00  0.00    +0.000 C 
ATOM     16  H   UNL     1      47.140   3.540  18.759  0.00  0.00    +0.000 HD
ENDBRANCH   8  10
ENDBRANCH   1   4
BRANCH   1  17
ATOM     17  N   UNL     1      49.422   6.971  12.818  0.00  0.00    +0.000 N 
ATOM     18  H   UNL     1      49.805   6.739  11.906  0.00  0.00    +0.000 HD
BRANCH  17  24
ATOM     19  C   UNL     1      47.032   7.554  12.325  0.00  0.00    +0.000 A 
ATOM     20  C   UNL     1      45.706   7.106  12.432  0.00  0.00    +0.000 A 
ATOM     21  C   UNL     1      45.429   5.855  12.975  0.00  0.00    +0.000 A 
ATOM     22  C   UNL     1      46.492   5.073  13.375  0.00  0.00    +0.000 A 
ATOM     23  N   UNL     1      47.780   5.461  13.267  0.00  0.00    +0.000 NA
ATOM     24  C   UNL     1      48.058   6.692  12.757  0.00  0.00    +0.000 A 
BRANCH  19  26
ATOM     25  C   UNL     1      46.590   9.911  12.254  0.00  0.00    +0.000 C 
ATOM     26  O   UNL     1      47.360   8.789  11.842  0.00  0.00    +0.000 OA
ENDBRANCH  19  26
BRANCH  21  27
ATOM     27  C   UNL     1      44.087   5.400  13.145  0.00  0.00    +0.000 C 
ATOM     28  N   UNL     1      42.997   5.029  13.294  0.00  0.00    +0.000 NA
ENDBRANCH  21  27
ENDBRANCH  17  24
ENDBRANCH   1  17
TORSDOF 6
ENDMDL
