MODEL 1
REMARK VINA RESULT:    -7.603      0.000      0.000
REMARK INTER + INTRA:         -10.101
REMARK INTER:                  -9.381
REMARK INTRA:                  -0.720
REMARK UNBOUND:                -0.720
REMARK  Name = 
REMARK  4 active torsions:
REMARK  status: ('A' for Active; 'I' for Inactive)
REMARK    1  A    between atoms: C_3  and  C_4
REMARK    2  A    between atoms: C_4  and  N_5
REMARK    3  A    between atoms: N_5  and  C_6
REMARK    4  A    between atoms: C_13  and  N_14
REMARK                            x       y       z     vdW  Elec       q    Type
REMARK                         _______ _______ _______ _____ _____    ______ ____
ROOT
ATOM      1  C   UNL     1      43.189   4.795  12.869  0.00  0.00    +0.000 A 
ATOM      2  C   UNL     1      43.233   3.930  11.782  0.00  0.00    +0.000 A 
ATOM      3  C   UNL     1      44.258   4.047  10.836  0.00  0.00    +0.000 A 
ATOM      4  C   UNL     1      45.247   5.034  11.016  0.00  0.00    +0.000 A 
ATOM      5  C   UNL     1      45.212   5.938  12.088  0.00  0.00    +0.000 A 
ATOM      6  C   UNL     1      44.166   5.782  13.013  0.00  0.00    +0.000 A 
ENDROOT
BRANCH   5   7
ATOM      7  N   UNL     1      46.165   6.925  12.284  0.00  0.00    +0.000 N 
ATOM      8  C   UNL     1      45.832   8.215  12.888  0.00  0.00    +0.000 C 
ATOM      9  C   UNL     1      46.679   9.296  12.208  0.00  0.00    +0.000 C 
ATOM     10  C   UNL     1      48.172   8.962  12.241  0.00  0.00    +0.000 C 
ATOM     11  C   UNL     1      48.444   7.549  11.725  0.00  0.00    +0.000 C 
ATOM     12  C   UNL     1      47.567   6.523  12.441  0.00  0.00    +0.000 C 
ENDBRANCH   5   7
BRANCH   3  13
ATOM     13  C   UNL     1      44.303   3.141   9.627  0.00  0.00    +0.000 C 
BRANCH  13  14
ATOM     14  N   UNL     1      45.077   3.755   8.555  0.00  0.00    +0.000 N 
ATOM     15  H   UNL     1      45.504   4.629   8.851  0.00  0.00    +0.000 HD
BRANCH  14  16
ATOM     16  C   UNL     1      45.960   2.949   7.823  0.00  0.00    +0.000 A 
ATOM     17  C   UNL     1      46.827   3.449   6.850  0.00  0.00    +0.000 A 
ATOM     18  C   UNL     1      47.725   2.591   6.229  0.00  0.00    +0.000 A 
ATOM     19  N   UNL     1      47.834   1.279   6.520  0.00  0.00    +0.000 NA
ATOM     20  C   UNL     1      47.025   0.817   7.490  0.00  0.00    +0.000 A 
ATOM     21  C   UNL     1      46.102   1.602   8.167  0.00  0.00    +0.000 A 
ENDBRANCH  14  16
ENDBRANCH  13  14
ENDBRANCH   3  13
TORSDOF 4
ENDMDL
MODEL 2
REMARK VINA RESULT:    -7.368      0.688      1.670
REMARK INTER + INTRA:          -9.811
REMARK INTER:                  -9.100
REMARK INTRA:                  -0.711
REMARK UNBOUND:                -0.720
REMARK  Name = 
REMARK  4 active torsions:
REMARK  status: ('A' for Active; 'I' for Inactive)
REMARK    1  A    between atoms: C_3  and  C_4
REMARK    2  A    between atoms: C_4  and  N_5
REMARK    3  A    between atoms: N_5  and  C_6
REMARK    4  A    between atoms: C_13  and  N_14
REMARK                            x       y       z     vdW  Elec       q    Type
REMARK                         _______ _______ _______ _____ _____    ______ ____
ROOT
ATOM      1  C   UNL     1      43.193   4.388  13.027  0.00  0.00    +0.000 A 
ATOM      2  C   UNL     1      43.299   3.420  12.035  0.00  0.00    +0.000 A 
ATOM      3  C   UNL     1      44.184   3.609  10.966  0.00  0.00    +0.000 A 
ATOM      4  C   UNL     1      44.973   4.776  10.928  0.00  0.00    +0.000 A 
ATOM      5  C   UNL     1      44.866   5.780  11.901  0.00  0.00    +0.000 A 
ATOM      6  C   UNL     1      43.966   5.548  12.954  0.00  0.00    +0.000 A 
ENDROOT
BRANCH   5   7
ATOM      7  N   UNL     1      45.621   6.943  11.882  0.00  0.00    +0.000 N 
ATOM      8  C   UNL     1      47.059   6.928  11.612  0.00  0.00    +0.000 C 
ATOM      9  C   UNL     1      47.718   8.012  12.472  0.00  0.00    +0.000 C 
ATOM     10  C   UNL     1      47.063   9.381  12.273  0.00  0.00    +0.000 C 
ATOM     11  C   UNL     1      45.544   9.306  12.433  0.00  0.00    +0.000 C 
ATOM     12  C   UNL     1      44.952   8.207  11.553  0.00  0.00    +0.000 C 
ENDBRANCH   5   7
BRANCH   3  13
ATOM     13  C   UNL     1      44.288   2.587   9.858  0.00  0.00    +0.000 C 
BRANCH  13  14
ATOM     14  N   UNL     1      44.778   3.207   8.633  0.00  0.00    +0.000 N 
ATOM     15  H   UNL     1      44.842   4.219   8.722  0.00  0.00    +0.000 HD
BRANCH  14  16
ATOM     16  C   UNL     1      45.904   2.653   8.007  0.00  0.00    +0.000 A 
ATOM     17  C   UNL     1      46.230   1.298   8.076  0.00  0.00    +0.000 A 
ATOM     18  C   UNL     1      47.320   0.821   7.359  0.00  0.00    +0.000 A 
ATOM     19  N   UNL     1      48.093   1.590   6.566  0.00  0.00    +0.000 NA
ATOM     20  C   UNL     1      47.742   2.886   6.472  0.00  0.00    +0.000 A 
ATOM     21  C   UNL     1      46.668   3.448   7.148  0.00  0.00    +0.000 A 
ENDBRANCH  14  16
ENDBRANCH  13  14
ENDBRANCH   3  13
TORSDOF 4
ENDMDL
MODEL 3
REMARK VINA RESULT:    -7.310      1.399      6.147
REMARK INTER + INTRA:          -9.740
REMARK INTER:                  -8.812
REMARK INTRA:                  -0.928
REMARK UNBOUND:                -0.720
REMARK  Name = 
REMARK  4 active torsions:
REMARK  status: ('A' for Active; 'I' for Inactive)
REMARK    1  A    between atoms: C_3  and  C_4
REMARK    2  A    between atoms: C_4  and  N_5
REMARK    3  A    between atoms: N_5  and  C_6
REMARK    4  A    between atoms: C_13  and  N_14
REMARK                            x       y       z     vdW  Elec       q    Type
REMARK                         _______ _______ _______ _____ _____    ______ ____
ROOT
ATOM      1  C   UNL     1      43.311   2.832  11.655  0.00  0.00    +0.000 A 
ATOM      2  C   UNL     1      43.234   4.195  11.920  0.00  0.00    +0.000 A 
ATOM      3  C   UNL     1      43.867   5.109  11.069  0.00  0.00    +0.000 A 
ATOM      4  C   UNL     1      44.559   4.628   9.939  0.00  0.00    +0.000 A 
ATOM      5  C   UNL     1      44.676   3.258   9.665  0.00  0.00    +0.000 A 
ATOM      6  C   UNL     1      44.023   2.378  10.544  0.00  0.00    +0.000 A 
ENDROOT
BRANCH   5   7
ATOM      7  N   UNL     1      45.359   2.757   8.567  0.00  0.00    +0.000 N 
ATOM      8  C   UNL     1      45.618   1.326   8.403  0.00  0.00    +0.000 C 
ATOM      9  C   UNL     1      46.993   1.161   7.748  0.00  0.00    +0.000 C 
ATOM     10  C   UNL     1      47.114   1.967   6.452  0.00  0.00    +0.000 C 
ATOM     11  C   UNL     1      46.698   3.424   6.656  0.00  0.00    +0.000 C 
ATOM     12  C   UNL     1      45.324   3.518   7.313  0.00  0.00    +0.000 C 
ENDBRANCH   5   7
BRANCH   3  13
ATOM     13  C   UNL     1      43.827   6.592  11.359  0.00  0.00    +0.000 C 
BRANCH  13  14
ATOM     14  N   UNL     1      44.462   6.882  12.638  0.00  0.00    +0.000 N 
ATOM     15  H   UNL     1      43.915   6.528  13.420  0.00  0.00    +0.000 HD
BRANCH  14  16
ATOM     16  C   UNL     1      45.832   6.615  12.780  0.00  0.00    +0.000 A 
ATOM     17  C   UNL     1      46.829   7.400  12.200  0.00  0.00    +0.000 A 
ATOM     18  C   UNL     1      48.163   7.109  12.459  0.00  0.00    +0.000 A 
ATOM     19  N   UNL     1      48.572   6.109  13.265  0.00  0.00    +0.000 NA
ATOM     20  C   UNL     1      47.601   5.387  13.853  0.00  0.00    +0.000 A 
ATOM     21  C   UNL     1      46.244   5.609  13.658  0.00  0.00    +0.000 A 
ENDBRANCH  14  16
ENDBRANCH  13  14
ENDBRANCH   3  13
TORSDOF 4
ENDMDL
MODEL 4
REMARK VINA RESULT:    -6.950      1.309      1.640
REMARK INTER + INTRA:          -9.295
REMARK INTER:                  -8.460
REMARK INTRA:                  -0.835
REMARK UNBOUND:                -0.720
REMARK  Name = 
REMARK  4 active torsions:
REMARK  status: ('A' for Active; 'I' for Inactive)
REMARK    1  A    between atoms: C_3  and  C_4
REMARK    2  A    between atoms: C_4  and  N_5
REMARK    3  A    between atoms: N_5  and  C_6
REMARK    4  A    between atoms: C_13  and  N_14
REMARK                            x       y       z     vdW  Elec       q    Type
REMARK                         _______ _______ _______ _____ _____    ______ ____
ROOT
ATOM      1  C   UNL     1      46.044   4.494  13.287  0.00  0.00    +0.000 A 
ATOM      2  C   UNL     1      45.187   3.957  12.333  0.00  0.00    +0.000 A 
ATOM      3  C   UNL     1      44.622   4.784  11.356  0.00  0.00    +0.000 A 
ATOM      4  C   UNL     1      44.950   6.155  11.344  0.00  0.00    +0.000 A 
ATOM      5  C   UNL     1      45.790   6.728  12.311  0.00  0.00    +0.000 A 
ATOM      6  C   UNL     1      46.336   5.860  13.271  0.00  0.00    +0.000 A 
ENDROOT
BRANCH   5   7
ATOM      7  N   UNL     1      46.121   8.074  12.330  0.00  0.00    +0.000 N 
ATOM      8  C   UNL     1      45.106   9.123  12.243  0.00  0.00    +0.000 C 
ATOM      9  C   UNL     1      45.686  10.285  11.430  0.00  0.00    +0.000 C 
ATOM     10  C   UNL     1      47.028  10.764  11.989  0.00  0.00    +0.000 C 
ATOM     11  C   UNL     1      48.002   9.602  12.187  0.00  0.00    +0.000 C 
ATOM     12  C   UNL     1      47.361   8.480  13.001  0.00  0.00    +0.000 C 
ENDBRANCH   5   7
BRANCH   3  13
ATOM     13  C   UNL     1      43.659   4.227  10.333  0.00  0.00    +0.000 C 
BRANCH  13  14
ATOM     14  N   UNL     1      44.140   4.489   8.982  0.00  0.00    +0.000 N 
ATOM     15  H   UNL     1      44.406   5.463   8.858  0.00  0.00    +0.000 HD
BRANCH  14  16
ATOM     16  C   UNL     1      45.072   3.605   8.420  0.00  0.00    +0.000 A 
ATOM     17  C   UNL     1      46.107   4.015   7.579  0.00  0.00    +0.000 A 
ATOM     18  C   UNL     1      47.033   3.082   7.132  0.00  0.00    +0.000 A 
ATOM     19  N   UNL     1      47.014   1.778   7.477  0.00  0.00    +0.000 NA
ATOM     20  C   UNL     1      46.039   1.403   8.324  0.00  0.00    +0.000 A 
ATOM     21  C   UNL     1      45.074   2.267   8.825  0.00  0.00    +0.000 A 
ENDBRANCH  14  16
ENDBRANCH  13  14
ENDBRANCH   3  13
TORSDOF 4
ENDMDL
MODEL 5
REMARK VINA RESULT:    -6.842      2.267      3.191
REMARK INTER + INTRA:          -9.162
REMARK INTER:                  -8.335
REMARK INTRA:                  -0.827
REMARK UNBOUND:                -0.720
REMARK  Name = 
REMARK  4 active torsions:
REMARK  status: ('A' for Active; 'I' for Inactive)
REMARK    1  A    between atoms: C_3  and  C_4
REMARK    2  A    between atoms: C_4  and  N_5
REMARK    3  A    between atoms: N_5  and  C_6
REMARK    4  A    between atoms: C_13  and  N_14
REMARK                            x       y       z     vdW  Elec       q    Type
REMARK                         _______ _______ _______ _____ _____    ______ ____
ROOT
ATOM      1  C   UNL     1      45.317   6.943  11.634  0.00  0.00    +0.000 A 
ATOM      2  C   UNL     1      44.622   5.920  10.999  0.00  0.00    +0.000 A 
ATOM      3  C   UNL     1      44.741   4.603  11.458  0.00  0.00    +0.000 A 
ATOM      4  C   UNL     1      45.555   4.339  12.578  0.00  0.00    +0.000 A 
ATOM      5  C   UNL     1      46.289   5.347  13.220  0.00  0.00    +0.000 A 
ATOM      6  C   UNL     1      46.137   6.653  12.727  0.00  0.00    +0.000 A 
ENDROOT
BRANCH   5   7
ATOM      7  N   UNL     1      47.105   5.114  14.316  0.00  0.00    +0.000 N 
ATOM      8  C   UNL     1      47.253   3.782  14.903  0.00  0.00    +0.000 C 
ATOM      9  C   UNL     1      47.393   3.940  16.421  0.00  0.00    +0.000 C 
ATOM     10  C   UNL     1      48.515   4.912  16.796  0.00  0.00    +0.000 C 
ATOM     11  C   UNL     1      48.383   6.238  16.047  0.00  0.00    +0.000 C 
ATOM     12  C   UNL     1      48.245   6.009  14.544  0.00  0.00    +0.000 C 
ENDBRANCH   5   7
BRANCH   3  13
ATOM     13  C   UNL     1      44.023   3.472  10.760  0.00  0.00    +0.000 C 
BRANCH  13  14
ATOM     14  N   UNL     1      44.108   3.627   9.313  0.00  0.00    +0.000 N 
ATOM     15  H   UNL     1      43.917   4.584   9.023  0.00  0.00    +0.000 HD
BRANCH  14  16
ATOM     16  C   UNL     1      45.211   3.077   8.645  0.00  0.00    +0.000 A 
ATOM     17  C   UNL     1      45.506   1.713   8.646  0.00  0.00    +0.000 A 
ATOM     18  C   UNL     1      46.573   1.244   7.891  0.00  0.00    +0.000 A 
ATOM     19  N   UNL     1      47.354   2.031   7.124  0.00  0.00    +0.000 NA
ATOM     20  C   UNL     1      47.034   3.338   7.096  0.00  0.00    +0.000 A 
ATOM     21  C   UNL     1      45.982   3.893   7.812  0.00  0.00    +0.000 A 
ENDBRANCH  14  16
ENDBRANCH  13  14
ENDBRANCH   3  13
TORSDOF 4
ENDMDL
MODEL 6
REMARK VINA RESULT:    -6.741      2.899      3.995
REMARK INTER + INTRA:          -9.037
REMARK INTER:                  -8.299
REMARK INTRA:                  -0.738
REMARK UNBOUND:                -0.720
REMARK  Name = 
REMARK  4 active torsions:
REMARK  status: ('A' for Active; 'I' for Inactive)
REMARK    1  A    between atoms: C_3  and  C_4
REMARK    2  A    between atoms: C_4  and  N_5
REMARK    3  A    between atoms: N_5  and  C_6
REMARK    4  A    between atoms: C_13  and  N_14
REMARK                            x       y       z     vdW  Elec       q    Type
REMARK                         _______ _______ _______ _____ _____    ______ ____
ROOT
ATOM      1  C   UNL     1      47.490   6.867  12.092  0.00  0.00    +0.000 A 
ATOM      2  C   UNL     1      46.346   6.356  11.490  0.00  0.00    +0.000 A 
ATOM      3  C   UNL     1      45.590   5.375  12.142  0.00  0.00    +0.000 A 
ATOM      4  C   UNL     1      45.995   4.934  13.419  0.00  0.00    +0.000 A 
ATOM      5  C   UNL     1      47.159   5.413  14.037  0.00  0.00    +0.000 A 
ATOM      6  C   UNL     1      47.885   6.397  13.346  0.00  0.00    +0.000 A 
ENDROOT
BRANCH   5   7
ATOM      7  N   UNL     1      47.586   4.990  15.287  0.00  0.00    +0.000 N 
ATOM      8  C   UNL     1      47.568   3.579  15.675  0.00  0.00    +0.000 C 
ATOM      9  C   UNL     1      47.211   3.498  17.163  0.00  0.00    +0.000 C 
ATOM     10  C   UNL     1      48.132   4.367  18.024  0.00  0.00    +0.000 C 
ATOM     11  C   UNL     1      48.219   5.796  17.487  0.00  0.00    +0.000 C 
ATOM     12  C   UNL     1      48.574   5.806  16.002  0.00  0.00    +0.000 C 
ENDBRANCH   5   7
BRANCH   3  13
ATOM     13  C   UNL     1      44.364   4.780  11.489  0.00  0.00    +0.000 C 
BRANCH  13  14
ATOM     14  N   UNL     1      44.389   5.009  10.050  0.00  0.00    +0.000 N 
ATOM     15  H   UNL     1      44.693   5.953   9.822  0.00  0.00    +0.000 HD
BRANCH  14  16
ATOM     16  C   UNL     1      44.987   4.042   9.229  0.00  0.00    +0.000 A 
ATOM     17  C   UNL     1      45.863   4.356   8.189  0.00  0.00    +0.000 A 
ATOM     18  C   UNL     1      46.473   3.330   7.478  0.00  0.00    +0.000 A 
ATOM     19  N   UNL     1      46.288   2.021   7.739  0.00  0.00    +0.000 NA
ATOM     20  C   UNL     1      45.478   1.731   8.773  0.00  0.00    +0.000 A 
ATOM     21  C   UNL     1      44.831   2.689   9.542  0.00  0.00    +0.000 A 
ENDBRANCH  14  16
ENDBRANCH  13  14
ENDBRANCH   3  13
TORSDOF 4
ENDMDL
MODEL 7
REMARK VINA RESULT:    -6.631      2.286      7.202
REMARK INTER + INTRA:          -8.901
REMARK INTER:                  -8.344
REMARK INTRA:                  -0.557
REMARK UNBOUND:                -0.720
REMARK  Name = 
REMARK  4 active torsions:
REMARK  status: ('A' for Active; 'I' for Inactive)
REMARK    1  A    between atoms: C_3  and  C_4
REMARK    2  A    between atoms: C_4  and  N_5
REMARK    3  A    between atoms: N_5  and  C_6
REMARK    4  A    between atoms: C_13  and  N_14
REMARK                            x       y       z     vdW  Elec       q    Type
REMARK                         _______ _______ _______ _____ _____    ______ ____
ROOT
ATOM      1  C   UNL     1      43.598   3.602  12.108  0.00  0.00    +0.000 A 
ATOM      2  C   UNL     1      43.814   4.956  12.344  0.00  0.00    +0.000 A 
ATOM      3  C   UNL     1      44.576   5.709  11.443  0.00  0.00    +0.000 A 
ATOM      4  C   UNL     1      45.098   5.082  10.294  0.00  0.00    +0.000 A 
ATOM      5  C   UNL     1      44.919   3.713  10.046  0.00  0.00    +0.000 A 
ATOM      6  C   UNL     1      44.146   2.997  10.975  0.00  0.00    +0.000 A 
ENDROOT
BRANCH   5   7
ATOM      7  N   UNL     1      45.429   3.068   8.930  0.00  0.00    +0.000 N 
ATOM      8  C   UNL     1      45.206   1.643   8.690  0.00  0.00    +0.000 C 
ATOM      9  C   UNL     1      46.468   1.063   8.041  0.00  0.00    +0.000 C 
ATOM     10  C   UNL     1      46.884   1.846   6.793  0.00  0.00    +0.000 C 
ATOM     11  C   UNL     1      46.968   3.347   7.073  0.00  0.00    +0.000 C 
ATOM     12  C   UNL     1      45.683   3.858   7.720  0.00  0.00    +0.000 C 
ENDBRANCH   5   7
BRANCH   3  13
ATOM     13  C   UNL     1      44.854   7.173  11.700  0.00  0.00    +0.000 C 
BRANCH  13  14
ATOM     14  N   UNL     1      43.831   8.004  11.077  0.00  0.00    +0.000 N 
ATOM     15  H   UNL     1      42.893   7.693  11.317  0.00  0.00    +0.000 HD
BRANCH  14  16
ATOM     16  C   UNL     1      43.967   9.398  11.151  0.00  0.00    +0.000 A 
ATOM     17  C   UNL     1      42.923  10.285  10.887  0.00  0.00    +0.000 A 
ATOM     18  C   UNL     1      43.124  11.648  11.062  0.00  0.00    +0.000 A 
ATOM     19  N   UNL     1      44.280  12.188  11.498  0.00  0.00    +0.000 NA
ATOM     20  C   UNL     1      45.265  11.320  11.792  0.00  0.00    +0.000 A 
ATOM     21  C   UNL     1      45.152   9.944  11.653  0.00  0.00    +0.000 A 
ENDBRANCH  14  16
ENDBRANCH  13  14
ENDBRANCH   3  13
TORSDOF 4
ENDMDL
MODEL 8
REMARK VINA RESULT:    -5.866      3.551      7.343
REMARK INTER + INTRA:          -7.958
REMARK INTER:                  -7.209
REMARK INTRA:                  -0.749
REMARK UNBOUND:                -0.720
REMARK  Name = 
REMARK  4 active torsions:
REMARK  status: ('A' for Active; 'I' for Inactive)
REMARK    1  A    between atoms: C_3  and  C_4
REMARK    2  A    between atoms: C_4  and  N_5
REMARK    3  A    between atoms: N_5  and  C_6
REMARK    4  A    between atoms: C_13  and  N_14
REMARK                            x       y       z     vdW  Elec       q    Type
REMARK                         _______ _______ _______ _____ _____    ______ ____
ROOT
ATOM      1  C   UNL     1      46.007   8.611  12.883  0.00  0.00    +0.000 A 
ATOM      2  C   UNL     1      47.117   8.469  13.709  0.00  0.00    +0.000 A 
ATOM      3  C   UNL     1      47.672   7.201  13.921  0.00  0.00    +0.000 A 
ATOM      4  C   UNL     1      47.105   6.087  13.270  0.00  0.00    +0.000 A 
ATOM      5  C   UNL     1      45.970   6.198  12.454  0.00  0.00    +0.000 A 
ATOM      6  C   UNL     1      45.448   7.489  12.269  0.00  0.00    +0.000 A 
ENDROOT
BRANCH   5   7
ATOM      7  N   UNL     1      45.386   5.118  11.811  0.00  0.00    +0.000 N 
ATOM      8  C   UNL     1      45.296   5.040  10.353  0.00  0.00    +0.000 C 
ATOM      9  C   UNL     1      43.971   4.361   9.991  0.00  0.00    +0.000 C 
ATOM     10  C   UNL     1      43.804   3.013  10.696  0.00  0.00    +0.000 C 
ATOM     11  C   UNL     1      44.044   3.132  12.201  0.00  0.00    +0.000 C 
ATOM     12  C   UNL     1      45.377   3.818  12.492  0.00  0.00    +0.000 C 
ENDBRANCH   5   7
BRANCH   3  13
ATOM     13  C   UNL     1      48.855   7.019  14.844  0.00  0.00    +0.000 C 
BRANCH  13  14
ATOM     14  N   UNL     1      48.408   6.675  16.188  0.00  0.00    +0.000 N 
ATOM     15  H   UNL     1      47.451   6.977  16.356  0.00  0.00    +0.000 HD
BRANCH  14  16
ATOM     16  C   UNL     1      48.650   5.377  16.661  0.00  0.00    +0.000 A 
ATOM     17  C   UNL     1      49.823   5.008  17.321  0.00  0.00    +0.000 A 
ATOM     18  C   UNL     1      49.945   3.721  17.827  0.00  0.00    +0.000 A 
ATOM     19  N   UNL     1      48.979   2.784  17.740  0.00  0.00    +0.000 NA
ATOM     20  C   UNL     1      47.836   3.164  17.141  0.00  0.00    +0.000 A 
ATOM     21  C   UNL     1      47.623   4.430  16.611  0.00  0.00    +0.000 A 
ENDBRANCH  14  16
ENDBRANCH  13  14
ENDBRANCH   3  13
TORSDOF 4
ENDMDL
MODEL 9
REMARK VINA RESULT:    -5.671      3.799      7.535
REMARK INTER + INTRA:          -7.717
REMARK INTER:                  -7.034
REMARK INTRA:                  -0.683
REMARK UNBOUND:                -0.720
REMARK  Name = 
REMARK  4 active torsions:
REMARK  status: ('A' for Active; 'I' for Inactive)
REMARK    1  A    between atoms: C_3  and  C_4
REMARK    2  A    between atoms: C_4  and  N_5
REMARK    3  A    between atoms: N_5  and  C_6
REMARK    4  A    between atoms: C_13  and  N_14
REMARK                            x       y       z     vdW  Elec       q    Type
REMARK                         _______ _______ _______ _____ _____    ______ ____
ROOT
ATOM      1  C   UNL     1      46.592   7.306  13.263  0.00  0.00    +0.000 A 
ATOM      2  C   UNL     1      45.958   8.504  12.953  0.00  0.00    +0.000 A 
ATOM      3  C   UNL     1      45.069   8.565  11.873  0.00  0.00    +0.000 A 
ATOM      4  C   UNL     1      44.815   7.397  11.127  0.00  0.00    +0.000 A 
ATOM      5  C   UNL     1      45.462   6.183  11.401  0.00  0.00    +0.000 A 
ATOM      6  C   UNL     1      46.344   6.168  12.494  0.00  0.00    +0.000 A 
ENDROOT
BRANCH   5   7
ATOM      7  N   UNL     1      45.240   5.022  10.677  0.00  0.00    +0.000 N 
ATOM      8  C   UNL     1      45.708   4.865   9.299  0.00  0.00    +0.000 C 
ATOM      9  C   UNL     1      44.668   4.045   8.530  0.00  0.00    +0.000 C 
ATOM     10  C   UNL     1      44.346   2.722   9.230  0.00  0.00    +0.000 C 
ATOM     11  C   UNL     1      43.997   2.937  10.703  0.00  0.00    +0.000 C 
ATOM     12  C   UNL     1      45.070   3.762  11.409  0.00  0.00    +0.000 C 
ENDBRANCH   5   7
BRANCH   3  13
ATOM     13  C   UNL     1      44.398   9.866  11.496  0.00  0.00    +0.000 C 
BRANCH  13  14
ATOM     14  N   UNL     1      43.641   9.712  10.260  0.00  0.00    +0.000 N 
ATOM     15  H   UNL     1      43.646   8.750   9.931  0.00  0.00    +0.000 HD
BRANCH  14  16
ATOM     16  C   UNL     1      42.370  10.299  10.176  0.00  0.00    +0.000 A 
ATOM     17  C   UNL     1      41.288   9.899  10.962  0.00  0.00    +0.000 A 
ATOM     18  C   UNL     1      40.087  10.589  10.870  0.00  0.00    +0.000 A 
ATOM     19  N   UNL     1      39.891  11.656  10.069  0.00  0.00    +0.000 NA
ATOM     20  C   UNL     1      40.954  12.060   9.350  0.00  0.00    +0.000 A 
ATOM     21  C   UNL     1      42.193  11.436   9.382  0.00  0.00    +0.000 A 
ENDBRANCH  14  16
ENDBRANCH  13  14
ENDBRANCH   3  13
TORSDOF 4
ENDMDL
