MODEL 1
REMARK VINA RESULT:    -7.706      0.000      0.000
REMARK INTER + INTRA:         -11.197
REMARK INTER:                 -10.409
REMARK INTRA:                  -0.788
REMARK UNBOUND:                -0.788
REMARK  Name = 
REMARK  7 active torsions:
REMARK  status: ('A' for Active; 'I' for Inactive)
REMARK    1  A    between atoms: C_1  and  O_2
REMARK    2  A    between atoms: O_2  and  C_3
REMARK    3  A    between atoms: C_5  and  C_6
REMARK    4  A    between atoms: C_10  and  N_11
REMARK    5  A    between atoms: N_11  and  C_12
REMARK    6  A    between atoms: C_12  and  C_13
REMARK    7  A    between atoms: C_17  and  C_18
REMARK                            x       y       z     vdW  Elec       q    Type
REMARK                         _______ _______ _______ _____ _____    ______ ____
ROOT
ATOM      1  C   UNL     1      43.630   5.625  11.215  0.00  0.00    +0.000 C 
ATOM      2  C   UNL     1      42.640   5.334  12.325  0.00  0.00    +0.000 C 
ATOM      3  C   UNL     1      42.498   6.596  11.544  0.00  0.00    +0.000 C 
ENDROOT
BRANCH   1   4
ATOM      4  C   UNL     1      45.030   6.029  11.672  0.00  0.00    +0.000 A 
ATOM      5  C   UNL     1      45.621   7.259  11.340  0.00  0.00    +0.000 A 
ATOM      6  C   UNL     1      46.763   7.702  12.004  0.00  0.00    +0.000 A 
ATOM      7  C   UNL     1      47.343   6.912  12.999  0.00  0.00    +0.000 A 
ATOM      8  C   UNL     1      46.825   5.644  13.307  0.00  0.00    +0.000 A 
ATOM      9  C   UNL     1      45.702   5.212  12.592  0.00  0.00    +0.000 A 
BRANCH   8  10
ATOM     10  C   UNL     1      47.332   4.834  14.426  0.00  0.00    +0.000 A 
ATOM     11  C   UNL     1      47.664   5.414  15.655  0.00  0.00    +0.000 A 
ATOM     12  C   UNL     1      48.035   4.619  16.736  0.00  0.00    +0.000 A 
ATOM     13  C   UNL     1      48.058   3.246  16.564  0.00  0.00    +0.000 A 
ATOM     14  N   UNL     1      47.743   2.633  15.405  0.00  0.00    +0.000 NA
ATOM     15  C   UNL     1      47.392   3.438  14.371  0.00  0.00    +0.000 A 
ENDBRANCH   8  10
ENDBRANCH   1   4
BRANCH   1  16
ATOM     16  N   UNL     1      43.596   5.024   9.891  0.00  0.00    +0.000 N 
ATOM     17  H   UNL     1      42.707   5.003   9.405  0.00  0.00    +0.000 HD
BRANCH  16  23
ATOM     18  C   UNL     1      44.465   2.698   9.473  0.00  0.00    +0.000 A 
ATOM     19  C   UNL     1      45.420   1.962   8.747  0.00  0.00    +0.000 A 
ATOM     20  C   UNL     1      46.310   2.607   7.890  0.00  0.00    +0.000 A 
ATOM     21  C   UNL     1      46.212   3.975   7.777  0.00  0.00    +0.000 A 
ATOM     22  N   UNL     1      45.301   4.712   8.444  0.00  0.00    +0.000 NA
ATOM     23  C   UNL     1      44.428   4.092   9.277  0.00  0.00    +0.000 A 
BRANCH  18  25
ATOM     24  C   UNL     1      43.908   2.203  11.743  0.00  0.00    +0.000 C 
ATOM     25  O   UNL     1      43.596   2.102  10.352  0.00  0.00    +0.000 OA
ENDBRANCH  18  25
BRANCH  20  26
ATOM     26  C   UNL     1      47.302   1.886   7.163  0.00  0.00    +0.000 C 
ATOM     27  N   UNL     1      48.113   1.302   6.570  0.00  0.00    +0.000 NA
ENDBRANCH  20  26
ENDBRANCH  16  23
ENDBRANCH   1  16
TORSDOF 6
ENDMDL
MODEL 2
REMARK VINA RESULT:    -6.960      3.028      5.645
REMARK INTER + INTRA:         -10.189
REMARK INTER:                  -9.290
REMARK INTRA:                  -0.900
REMARK UNBOUND:                -0.788
REMARK  Name = 
REMARK  7 active torsions:
REMARK  status: ('A' for Active; 'I' for Inactive)
REMARK    1  A    between atoms: C_1  and  O_2
REMARK    2  A    between atoms: O_2  and  C_3
REMARK    3  A    between atoms: C_5  and  C_6
REMARK    4  A    between atoms: C_10  and  N_11
REMARK    5  A    between atoms: N_11  and  C_12
REMARK    6  A    between atoms: C_12  and  C_13
REMARK    7  A    between atoms: C_17  and  C_18
REMARK                            x       y       z     vdW  Elec       q    Type
REMARK                         _______ _______ _______ _____ _____    ______ ____
ROOT
ATOM      1  C   UNL     1      44.751   6.242  11.845  0.00  0.00    +0.000 C 
ATOM      2  C   UNL     1      45.302   5.325  12.918  0.00  0.00    +0.000 C 
ATOM      3  C   UNL     1      43.850   5.664  12.934  0.00  0.00    +0.000 C 
ENDROOT
BRANCH   1   4
ATOM      4  C   UNL     1      45.128   7.715  11.981  0.00  0.00    +0.000 A 
ATOM      5  C   UNL     1      46.348   8.150  12.525  0.00  0.00    +0.000 A 
ATOM      6  C   UNL     1      46.767   9.469  12.370  0.00  0.00    +0.000 A 
ATOM      7  C   UNL     1      45.963  10.381  11.682  0.00  0.00    +0.000 A 
ATOM      8  C   UNL     1      44.705  10.004  11.187  0.00  0.00    +0.000 A 
ATOM      9  C   UNL     1      44.296   8.682  11.398  0.00  0.00    +0.000 A 
BRANCH   8  10
ATOM     10  C   UNL     1      43.882  10.897  10.357  0.00  0.00    +0.000 A 
ATOM     11  C   UNL     1      43.732  10.682   8.982  0.00  0.00    +0.000 A 
ATOM     12  C   UNL     1      42.862  11.470   8.233  0.00  0.00    +0.000 A 
ATOM     13  C   UNL     1      42.147  12.460   8.884  0.00  0.00    +0.000 A 
ATOM     14  N   UNL     1      42.248  12.708  10.206  0.00  0.00    +0.000 NA
ATOM     15  C   UNL     1      43.109  11.926  10.904  0.00  0.00    +0.000 A 
ENDBRANCH   8  10
ENDBRANCH   1   4
BRANCH   1  16
ATOM     16  N   UNL     1      44.449   5.839  10.480  0.00  0.00    +0.000 N 
ATOM     17  H   UNL     1      43.601   6.201  10.058  0.00  0.00    +0.000 HD
BRANCH  16  23
ATOM     18  C   UNL     1      44.355   3.419   9.794  0.00  0.00    +0.000 A 
ATOM     19  C   UNL     1      44.940   2.461   8.944  0.00  0.00    +0.000 A 
ATOM     20  C   UNL     1      45.990   2.812   8.098  0.00  0.00    +0.000 A 
ATOM     21  C   UNL     1      46.419   4.119   8.119  0.00  0.00    +0.000 A 
ATOM     22  N   UNL     1      45.873   5.068   8.907  0.00  0.00    +0.000 NA
ATOM     23  C   UNL     1      44.848   4.736   9.731  0.00  0.00    +0.000 A 
BRANCH  18  25
ATOM     24  C   UNL     1      43.680   2.268  11.776  0.00  0.00    +0.000 C 
ATOM     25  O   UNL     1      43.344   3.102  10.666  0.00  0.00    +0.000 OA
ENDBRANCH  18  25
BRANCH  20  26
ATOM     26  C   UNL     1      46.615   1.855   7.247  0.00  0.00    +0.000 C 
ATOM     27  N   UNL     1      47.123   1.077   6.549  0.00  0.00    +0.000 NA
ENDBRANCH  20  26
ENDBRANCH  16  23
ENDBRANCH   1  16
TORSDOF 6
ENDMDL
MODEL 3
REMARK VINA RESULT:    -6.895      2.465      7.304
REMARK INTER + INTRA:         -10.101
REMARK INTER:                  -9.288
REMARK INTRA:                  -0.813
REMARK UNBOUND:                -0.788
REMARK  Name = 
REMARK  7 active torsions:
REMARK  status: ('A' for Active; 'I' for Inactive)
REMARK    1  A    between atoms: C_1  and  O_2
REMARK    2  A    between atoms: O_2  and  C_3
REMARK    3  A    between atoms: C_5  and  C_6
REMARK    4  A    between atoms: C_10  and  N_11
REMARK    5  A    between atoms: N_11  and  C_12
REMARK    6  A    between atoms: C_12  and  C_13
REMARK    7  A    between atoms: C_17  and  C_18
REMARK                            x       y       z     vdW  Elec       q    Type
REMARK                         _______ _______ _______ _____ _____    ______ ____
ROOT
ATOM      1  C   UNL     1      46.529   5.619  13.665  0.00  0.00    +0.000 C 
ATOM      2  C   UNL     1      47.738   6.142  12.915  0.00  0.00    +0.000 C 
ATOM      3  C   UNL     1      46.816   7.116  13.568  0.00  0.00    +0.000 C 
ENDROOT
BRANCH   1   4
ATOM      4  C   UNL     1      45.395   5.084  12.794  0.00  0.00    +0.000 A 
ATOM      5  C   UNL     1      44.051   5.444  12.975  0.00  0.00    +0.000 A 
ATOM      6  C   UNL     1      43.100   5.164  11.996  0.00  0.00    +0.000 A 
ATOM      7  C   UNL     1      43.478   4.503  10.825  0.00  0.00    +0.000 A 
ATOM      8  C   UNL     1      44.797   4.061  10.639  0.00  0.00    +0.000 A 
ATOM      9  C   UNL     1      45.717   4.321  11.662  0.00  0.00    +0.000 A 
BRANCH   8  10
ATOM     10  C   UNL     1      45.262   3.469   9.375  0.00  0.00    +0.000 A 
ATOM     11  C   UNL     1      45.717   4.267   8.320  0.00  0.00    +0.000 A 
ATOM     12  C   UNL     1      46.257   3.686   7.175  0.00  0.00    +0.000 A 
ATOM     13  C   UNL     1      46.337   2.306   7.114  0.00  0.00    +0.000 A 
ATOM     14  N   UNL     1      45.918   1.489   8.102  0.00  0.00    +0.000 NA
ATOM     15  C   UNL     1      45.393   2.088   9.199  0.00  0.00    +0.000 A 
ENDBRANCH   8  10
ENDBRANCH   1   4
BRANCH   1  16
ATOM     16  N   UNL     1      46.563   5.044  15.001  0.00  0.00    +0.000 N 
ATOM     17  H   UNL     1      45.910   5.405  15.687  0.00  0.00    +0.000 HD
BRANCH  16  23
ATOM     18  C   UNL     1      48.462   4.900  16.647  0.00  0.00    +0.000 A 
ATOM     19  C   UNL     1      49.415   4.023  17.200  0.00  0.00    +0.000 A 
ATOM     20  C   UNL     1      49.477   2.694  16.787  0.00  0.00    +0.000 A 
ATOM     21  C   UNL     1      48.575   2.275  15.837  0.00  0.00    +0.000 A 
ATOM     22  N   UNL     1      47.638   3.081  15.296  0.00  0.00    +0.000 NA
ATOM     23  C   UNL     1      47.568   4.375  15.695  0.00  0.00    +0.000 A 
BRANCH  18  25
ATOM     24  C   UNL     1      48.257   6.518  18.393  0.00  0.00    +0.000 C 
ATOM     25  O   UNL     1      48.394   6.224  17.002  0.00  0.00    +0.000 OA
ENDBRANCH  18  25
BRANCH  20  26
ATOM     26  C   UNL     1      50.449   1.793  17.314  0.00  0.00    +0.000 C 
ATOM     27  N   UNL     1      51.239   1.059  17.747  0.00  0.00    +0.000 NA
ENDBRANCH  20  26
ENDBRANCH  16  23
ENDBRANCH   1  16
TORSDOF 6
ENDMDL
MODEL 4
REMARK VINA RESULT:    -6.858      2.556      3.608
REMARK INTER + INTRA:         -10.052
REMARK INTER:                  -9.197
REMARK INTRA:                  -0.854
REMARK UNBOUND:                -0.788
REMARK  Name = 
REMARK  7 active torsions:
REMARK  status: ('A' for Active; 'I' for Inactive)
REMARK    1  A    between atoms: C_1  and  O_2
REMARK    2  A    between atoms: O_2  and  C_3
REMARK    3  A    between atoms: C_5  and  C_6
REMARK    4  A    between atoms: C_10  and  N_11
REMARK    5  A    between atoms: N_11  and  C_12
REMARK    6  A    between atoms: C_12  and  C_13
REMARK    7  A    between atoms: C_17  and  C_18
REMARK                            x       y       z     vdW  Elec       q    Type
REMARK                         _______ _______ _______ _____ _____    ______ ____
ROOT
ATOM      1  C   UNL     1      44.600   6.205  11.677  0.00  0.00    +0.000 C 
ATOM      2  C   UNL     1      45.168   5.437  12.853  0.00  0.00    +0.000 C 
ATOM      3  C   UNL     1      43.740   5.866  12.892  0.00  0.00    +0.000 C 
ENDROOT
BRANCH   1   4
ATOM      4  C   UNL     1      45.063   7.654  11.551  0.00  0.00    +0.000 A 
ATOM      5  C   UNL     1      44.218   8.699  11.143  0.00  0.00    +0.000 A 
ATOM      6  C   UNL     1      44.595  10.029  11.316  0.00  0.00    +0.000 A 
ATOM      7  C   UNL     1      45.833  10.336  11.886  0.00  0.00    +0.000 A 
ATOM      8  C   UNL     1      46.736   9.320  12.239  0.00  0.00    +0.000 A 
ATOM      9  C   UNL     1      46.342   7.996  12.013  0.00  0.00    +0.000 A 
BRANCH   8  10
ATOM     10  C   UNL     1      47.995   9.595  12.949  0.00  0.00    +0.000 A 
ATOM     11  C   UNL     1      48.651   8.599  13.681  0.00  0.00    +0.000 A 
ATOM     12  C   UNL     1      49.897   8.846  14.253  0.00  0.00    +0.000 A 
ATOM     13  C   UNL     1      50.468  10.093  14.070  0.00  0.00    +0.000 A 
ATOM     14  N   UNL     1      49.883  11.087  13.371  0.00  0.00    +0.000 NA
ATOM     15  C   UNL     1      48.669  10.815  12.833  0.00  0.00    +0.000 A 
ENDBRANCH   8  10
ENDBRANCH   1   4
BRANCH   1  16
ATOM     16  N   UNL     1      44.190   5.610  10.414  0.00  0.00    +0.000 N 
ATOM     17  H   UNL     1      43.245   5.787  10.094  0.00  0.00    +0.000 HD
BRANCH  16  23
ATOM     18  C   UNL     1      44.284   3.157   9.854  0.00  0.00    +0.000 A 
ATOM     19  C   UNL     1      44.932   2.207   9.043  0.00  0.00    +0.000 A 
ATOM     20  C   UNL     1      45.935   2.598   8.158  0.00  0.00    +0.000 A 
ATOM     21  C   UNL     1      46.255   3.934   8.103  0.00  0.00    +0.000 A 
ATOM     22  N   UNL     1      45.646   4.876   8.853  0.00  0.00    +0.000 NA
ATOM     23  C   UNL     1      44.666   4.505   9.714  0.00  0.00    +0.000 A 
BRANCH  18  25
ATOM     24  C   UNL     1      43.761   2.385  12.054  0.00  0.00    +0.000 C 
ATOM     25  O   UNL     1      43.318   2.805  10.763  0.00  0.00    +0.000 OA
ENDBRANCH  18  25
BRANCH  20  26
ATOM     26  C   UNL     1      46.622   1.651   7.343  0.00  0.00    +0.000 C 
ATOM     27  N   UNL     1      47.180   0.881   6.676  0.00  0.00    +0.000 NA
ENDBRANCH  20  26
ENDBRANCH  16  23
ENDBRANCH   1  16
TORSDOF 6
ENDMDL
MODEL 5
REMARK VINA RESULT:    -6.541      2.567      7.160
REMARK INTER + INTRA:          -9.623
REMARK INTER:                  -9.278
REMARK INTRA:                  -0.345
REMARK UNBOUND:                -0.788
REMARK  Name = 
REMARK  7 active torsions:
REMARK  status: ('A' for Active; 'I' for Inactive)
REMARK    1  A    between atoms: C_1  and  O_2
REMARK    2  A    between atoms: O_2  and  C_3
REMARK    3  A    between atoms: C_5  and  C_6
REMARK    4  A    between atoms: C_10  and  N_11
REMARK    5  A    between atoms: N_11  and  C_12
REMARK    6  A    between atoms: C_12  and  C_13
REMARK    7  A    between atoms: C_17  and  C_18
REMARK                            x       y       z     vdW  Elec       q    Type
REMARK                         _______ _______ _______ _____ _____    ______ ____
ROOT
ATOM      1  C   UNL     1      46.354   7.276  12.390  0.00  0.00    +0.000 C 
ATOM      2  C   UNL     1      46.297   8.647  11.748  0.00  0.00    +0.000 C 
ATOM      3  C   UNL     1      45.784   8.479  13.138  0.00  0.00    +0.000 C 
ENDROOT
BRANCH   1   4
ATOM      4  C   UNL     1      45.345   6.259  11.862  0.00  0.00    +0.000 A 
ATOM      5  C   UNL     1      43.965   6.348  12.107  0.00  0.00    +0.000 A 
ATOM      6  C   UNL     1      43.061   5.576  11.380  0.00  0.00    +0.000 A 
ATOM      7  C   UNL     1      43.526   4.689  10.406  0.00  0.00    +0.000 A 
ATOM      8  C   UNL     1      44.901   4.518  10.183  0.00  0.00    +0.000 A 
ATOM      9  C   UNL     1      45.783   5.279  10.961  0.00  0.00    +0.000 A 
BRANCH   8  10
ATOM     10  C   UNL     1      45.427   3.686   9.089  0.00  0.00    +0.000 A 
ATOM     11  C   UNL     1      46.057   4.256   7.978  0.00  0.00    +0.000 A 
ATOM     12  C   UNL     1      46.647   3.449   7.008  0.00  0.00    +0.000 A 
ATOM     13  C   UNL     1      46.600   2.077   7.178  0.00  0.00    +0.000 A 
ATOM     14  N   UNL     1      46.011   1.474   8.231  0.00  0.00    +0.000 NA
ATOM     15  C   UNL     1      45.441   2.289   9.153  0.00  0.00    +0.000 A 
ENDBRANCH   8  10
ENDBRANCH   1   4
BRANCH   1  16
ATOM     16  N   UNL     1      47.549   6.672  12.960  0.00  0.00    +0.000 N 
ATOM     17  H   UNL     1      48.232   6.283  12.321  0.00  0.00    +0.000 HD
BRANCH  16  23
ATOM     18  C   UNL     1      48.595   6.674  15.250  0.00  0.00    +0.000 A 
ATOM     19  C   UNL     1      48.723   5.925  16.435  0.00  0.00    +0.000 A 
ATOM     20  C   UNL     1      48.106   4.682  16.557  0.00  0.00    +0.000 A 
ATOM     21  C   UNL     1      47.367   4.226  15.490  0.00  0.00    +0.000 A 
ATOM     22  N   UNL     1      47.210   4.922  14.345  0.00  0.00    +0.000 NA
ATOM     23  C   UNL     1      47.804   6.134  14.219  0.00  0.00    +0.000 A 
BRANCH  18  25
ATOM     24  C   UNL     1      48.525   9.044  15.544  0.00  0.00    +0.000 C 
ATOM     25  O   UNL     1      49.218   7.885  15.079  0.00  0.00    +0.000 OA
ENDBRANCH  18  25
BRANCH  20  26
ATOM     26  C   UNL     1      48.240   3.894  17.738  0.00  0.00    +0.000 C 
ATOM     27  N   UNL     1      48.353   3.250  18.698  0.00  0.00    +0.000 NA
ENDBRANCH  20  26
ENDBRANCH  16  23
ENDBRANCH   1  16
TORSDOF 6
ENDMDL
MODEL 6
REMARK VINA RESULT:    -6.352      3.325      6.292
REMARK INTER + INTRA:          -9.369
REMARK INTER:                  -8.373
REMARK INTRA:                  -0.995
REMARK UNBOUND:                -0.788
REMARK  Name = 
REMARK  7 active torsions:
REMARK  status: ('A' for Active; 'I' for Inactive)
REMARK    1  A    between atoms: C_1  and  O_2
REMARK    2  A    between atoms: O_2  and  C_3
REMARK    3  A    between atoms: C_5  and  C_6
REMARK    4  A    between atoms: C_10  and  N_11
REMARK    5  A    between atoms: N_11  and  C_12
REMARK    6  A    between atoms: C_12  and  C_13
REMARK    7  A    between atoms: C_17  and  C_18
REMARK                            x       y       z     vdW  Elec       q    Type
REMARK                         _______ _______ _______ _____ _____    ______ ____
ROOT
ATOM      1  C   UNL     1      47.378   7.753  13.183  0.00  0.00    +0.000 C 
ATOM      2  C   UNL     1      48.782   7.193  13.077  0.00  0.00    +0.000 C 
ATOM      3  C   UNL     1      48.293   7.671  14.402  0.00  0.00    +0.000 C 
ENDROOT
BRANCH   1   4
ATOM      4  C   UNL     1      47.175   9.138  12.574  0.00  0.00    +0.000 A 
ATOM      5  C   UNL     1      48.230   9.929  12.093  0.00  0.00    +0.000 A 
ATOM      6  C   UNL     1      47.980  11.044  11.295  0.00  0.00    +0.000 A 
ATOM      7  C   UNL     1      46.665  11.396  10.982  0.00  0.00    +0.000 A 
ATOM      8  C   UNL     1      45.580  10.675  11.504  0.00  0.00    +0.000 A 
ATOM      9  C   UNL     1      45.867   9.585  12.336  0.00  0.00    +0.000 A 
BRANCH   8  10
ATOM     10  C   UNL     1      44.189  10.938  11.104  0.00  0.00    +0.000 A 
ATOM     11  C   UNL     1      43.316   9.897  10.770  0.00  0.00    +0.000 A 
ATOM     12  C   UNL     1      41.975  10.157  10.502  0.00  0.00    +0.000 A 
ATOM     13  C   UNL     1      41.529  11.464  10.584  0.00  0.00    +0.000 A 
ATOM     14  N   UNL     1      42.324  12.505  10.906  0.00  0.00    +0.000 NA
ATOM     15  C   UNL     1      43.626  12.217  11.155  0.00  0.00    +0.000 A 
ENDBRANCH   8  10
ENDBRANCH   1   4
BRANCH   1  16
ATOM     16  N   UNL     1      46.165   6.953  13.236  0.00  0.00    +0.000 N 
ATOM     17  H   UNL     1      45.602   7.004  14.077  0.00  0.00    +0.000 HD
BRANCH  16  23
ATOM     18  C   UNL     1      45.655   4.494  13.054  0.00  0.00    +0.000 A 
ATOM     19  C   UNL     1      45.276   3.482  12.152  0.00  0.00    +0.000 A 
ATOM     20  C   UNL     1      45.067   3.775  10.806  0.00  0.00    +0.000 A 
ATOM     21  C   UNL     1      45.235   5.079  10.401  0.00  0.00    +0.000 A 
ATOM     22  N   UNL     1      45.582   6.078  11.238  0.00  0.00    +0.000 NA
ATOM     23  C   UNL     1      45.784   5.802  12.550  0.00  0.00    +0.000 A 
BRANCH  18  25
ATOM     24  C   UNL     1      47.263   3.995  14.749  0.00  0.00    +0.000 C 
ATOM     25  O   UNL     1      45.905   4.237  14.379  0.00  0.00    +0.000 OA
ENDBRANCH  18  25
BRANCH  20  26
ATOM     26  C   UNL     1      44.706   2.763   9.869  0.00  0.00    +0.000 C 
ATOM     27  N   UNL     1      44.416   1.937   9.104  0.00  0.00    +0.000 NA
ENDBRANCH  20  26
ENDBRANCH  16  23
ENDBRANCH   1  16
TORSDOF 6
ENDMDL
MODEL 7
REMARK VINA RESULT:    -6.346      3.504      6.336
REMARK INTER + INTRA:          -9.360
REMARK INTER:                  -8.073
REMARK INTRA:                  -1.287
REMARK UNBOUND:                -0.788
REMARK  Name = 
REMARK  7 active torsions:
REMARK  status: ('A' for Active; 'I' for Inactive)
REMARK    1  A    between atoms: C_1  and  O_2
REMARK    2  A    between atoms: O_2  and  C_3
REMARK    3  A    between atoms: C_5  and  C_6
REMARK    4  A    between atoms: C_10  and  N_11
REMARK    5  A    between atoms: N_11  and  C_12
REMARK    6  A    between atoms: C_12  and  C_13
REMARK    7  A    between atoms: C_17  and  C_18
REMARK                            x       y       z     vdW  Elec       q    Type
REMARK                         _______ _______ _______ _____ _____    ______ ____
ROOT
ATOM      1  C   UNL     1      48.965   7.650  15.714  0.00  0.00    +0.000 C 
ATOM      2  C   UNL     1      48.422   9.050  15.911  0.00  0.00    +0.000 C 
ATOM      3  C   UNL     1      49.841   8.880  15.487  0.00  0.00    +0.000 C 
ENDROOT
BRANCH   1   4
ATOM      4  C   UNL     1      49.221   6.858  16.995  0.00  0.00    +0.000 A 
ATOM      5  C   UNL     1      48.503   7.066  18.183  0.00  0.00    +0.000 A 
ATOM      6  C   UNL     1      48.567   6.142  19.225  0.00  0.00    +0.000 A 
ATOM      7  C   UNL     1      49.366   5.003  19.100  0.00  0.00    +0.000 A 
ATOM      8  C   UNL     1      50.155   4.797  17.958  0.00  0.00    +0.000 A 
ATOM      9  C   UNL     1      50.099   5.766  16.948  0.00  0.00    +0.000 A 
BRANCH   8  10
ATOM     10  C   UNL     1      50.915   3.557  17.736  0.00  0.00    +0.000 A 
ATOM     11  C   UNL     1      52.234   3.420  18.181  0.00  0.00    +0.000 A 
ATOM     12  C   UNL     1      52.899   2.203  18.062  0.00  0.00    +0.000 A 
ATOM     13  C   UNL     1      52.220   1.136  17.501  0.00  0.00    +0.000 A 
ATOM     14  N   UNL     1      50.947   1.209  17.059  0.00  0.00    +0.000 NA
ATOM     15  C   UNL     1      50.332   2.411  17.186  0.00  0.00    +0.000 A 
ENDBRANCH   8  10
ENDBRANCH   1   4
BRANCH   1  16
ATOM     16  N   UNL     1      48.715   6.815  14.550  0.00  0.00    +0.000 N 
ATOM     17  H   UNL     1      49.393   6.839  13.797  0.00  0.00    +0.000 HD
BRANCH  16  23
ATOM     18  C   UNL     1      47.004   4.993  14.251  0.00  0.00    +0.000 A 
ATOM     19  C   UNL     1      45.803   4.666  13.593  0.00  0.00    +0.000 A 
ATOM     20  C   UNL     1      45.194   5.580  12.736  0.00  0.00    +0.000 A 
ATOM     21  C   UNL     1      45.801   6.803  12.569  0.00  0.00    +0.000 A 
ATOM     22  N   UNL     1      46.942   7.158  13.194  0.00  0.00    +0.000 NA
ATOM     23  C   UNL     1      47.539   6.276  14.033  0.00  0.00    +0.000 A 
BRANCH  18  25
ATOM     24  C   UNL     1      47.068   3.861  16.355  0.00  0.00    +0.000 C 
ATOM     25  O   UNL     1      47.652   4.106  15.074  0.00  0.00    +0.000 OA
ENDBRANCH  18  25
BRANCH  20  26
ATOM     26  C   UNL     1      43.991   5.264  12.040  0.00  0.00    +0.000 C 
ATOM     27  N   UNL     1      43.012   5.008  11.468  0.00  0.00    +0.000 NA
ENDBRANCH  20  26
ENDBRANCH  16  23
ENDBRANCH   1  16
TORSDOF 6
ENDMDL
MODEL 8
REMARK VINA RESULT:    -6.262      3.454      8.039
REMARK INTER + INTRA:          -9.247
REMARK INTER:                  -8.258
REMARK INTRA:                  -0.988
REMARK UNBOUND:                -0.788
REMARK  Name = 
REMARK  7 active torsions:
REMARK  status: ('A' for Active; 'I' for Inactive)
REMARK    1  A    between atoms: C_1  and  O_2
REMARK    2  A    between atoms: O_2  and  C_3
REMARK    3  A    between atoms: C_5  and  C_6
REMARK    4  A    between atoms: C_10  and  N_11
REMARK    5  A    between atoms: N_11  and  C_12
REMARK    6  A    between atoms: C_12  and  C_13
REMARK    7  A    between atoms: C_17  and  C_18
REMARK                            x       y       z     vdW  Elec       q    Type
REMARK                         _______ _______ _______ _____ _____    ______ ____
ROOT
ATOM      1  C   UNL     1      49.357   7.695  12.739  0.00  0.00    +0.000 C 
ATOM      2  C   UNL     1      50.046   7.682  11.390  0.00  0.00    +0.000 C 
ATOM      3  C   UNL     1      49.995   8.957  12.162  0.00  0.00    +0.000 C 
ENDROOT
BRANCH   1   4
ATOM      4  C   UNL     1      47.832   7.622  12.699  0.00  0.00    +0.000 A 
ATOM      5  C   UNL     1      47.001   8.665  13.137  0.00  0.00    +0.000 A 
ATOM      6  C   UNL     1      45.644   8.676  12.822  0.00  0.00    +0.000 A 
ATOM      7  C   UNL     1      45.092   7.631  12.077  0.00  0.00    +0.000 A 
ATOM      8  C   UNL     1      45.875   6.533  11.683  0.00  0.00    +0.000 A 
ATOM      9  C   UNL     1      47.225   6.535  12.053  0.00  0.00    +0.000 A 
BRANCH   8  10
ATOM     10  C   UNL     1      45.364   5.475  10.799  0.00  0.00    +0.000 A 
ATOM     11  C   UNL     1      45.769   5.381   9.463  0.00  0.00    +0.000 A 
ATOM     12  C   UNL     1      45.362   4.309   8.674  0.00  0.00    +0.000 A 
ATOM     13  C   UNL     1      44.557   3.339   9.246  0.00  0.00    +0.000 A 
ATOM     14  N   UNL     1      44.141   3.376  10.529  0.00  0.00    +0.000 NA
ATOM     15  C   UNL     1      44.551   4.437  11.267  0.00  0.00    +0.000 A 
ENDBRANCH   8  10
ENDBRANCH   1   4
BRANCH   1  16
ATOM     16  N   UNL     1      49.935   7.190  13.974  0.00  0.00    +0.000 N 
ATOM     17  H   UNL     1      50.675   6.501  13.902  0.00  0.00    +0.000 HD
BRANCH  16  23
ATOM     18  C   UNL     1      49.398   8.153  16.237  0.00  0.00    +0.000 A 
ATOM     19  C   UNL     1      48.862   7.840  17.501  0.00  0.00    +0.000 A 
ATOM     20  C   UNL     1      48.415   6.550  17.781  0.00  0.00    +0.000 A 
ATOM     21  C   UNL     1      48.509   5.609  16.782  0.00  0.00    +0.000 A 
ATOM     22  N   UNL     1      49.003   5.875  15.555  0.00  0.00    +0.000 NA
ATOM     23  C   UNL     1      49.436   7.128  15.273  0.00  0.00    +0.000 A 
BRANCH  18  25
ATOM     24  C   UNL     1      48.936  10.473  15.900  0.00  0.00    +0.000 C 
ATOM     25  O   UNL     1      49.881   9.402  15.937  0.00  0.00    +0.000 OA
ENDBRANCH  18  25
BRANCH  20  26
ATOM     26  C   UNL     1      47.891   6.203  19.061  0.00  0.00    +0.000 C 
ATOM     27  N   UNL     1      47.464   5.925  20.105  0.00  0.00    +0.000 NA
ENDBRANCH  20  26
ENDBRANCH  16  23
ENDBRANCH   1  16
TORSDOF 6
ENDMDL
MODEL 9
REMARK VINA RESULT:    -6.235      2.807      7.437
REMARK INTER + INTRA:          -9.210
REMARK INTER:                  -8.448
REMARK INTRA:                  -0.761
REMARK UNBOUND:                -0.788
REMARK  Name = 
REMARK  7 active torsions:
REMARK  status: ('A' for Active; 'I' for Inactive)
REMARK    1  A    between atoms: C_1  and  O_2
REMARK    2  A    between atoms: O_2  and  C_3
REMARK    3  A    between atoms: C_5  and  C_6
REMARK    4  A    between atoms: C_10  and  N_11
REMARK    5  A    between atoms: N_11  and  C_12
REMARK    6  A    between atoms: C_12  and  C_13
REMARK    7  A    between atoms: C_17  and  C_18
REMARK                            x       y       z     vdW  Elec       q    Type
REMARK                         _______ _______ _______ _____ _____    ______ ____
ROOT
ATOM      1  C   UNL     1      48.130   7.345  13.498  0.00  0.00    +0.000 C 
ATOM      2  C   UNL     1      49.241   6.872  12.583  0.00  0.00    +0.000 C 
ATOM      3  C   UNL     1      49.136   8.325  12.898  0.00  0.00    +0.000 C 
ENDROOT
BRANCH   1   4
ATOM      4  C   UNL     1      46.731   7.345  12.887  0.00  0.00    +0.000 A 
ATOM      5  C   UNL     1      45.917   8.488  12.829  0.00  0.00    +0.000 A 
ATOM      6  C   UNL     1      44.783   8.515  12.019  0.00  0.00    +0.000 A 
ATOM      7  C   UNL     1      44.435   7.390  11.267  0.00  0.00    +0.000 A 
ATOM      8  C   UNL     1      45.181   6.204  11.355  0.00  0.00    +0.000 A 
ATOM      9  C   UNL     1      46.290   6.198  12.210  0.00  0.00    +0.000 A 
BRANCH   8  10
ATOM     10  C   UNL     1      44.921   5.041  10.493  0.00  0.00    +0.000 A 
ATOM     11  C   UNL     1      45.512   4.921   9.230  0.00  0.00    +0.000 A 
ATOM     12  C   UNL     1      45.342   3.763   8.476  0.00  0.00    +0.000 A 
ATOM     13  C   UNL     1      44.584   2.736   9.011  0.00  0.00    +0.000 A 
ATOM     14  N   UNL     1      43.996   2.795  10.223  0.00  0.00    +0.000 NA
ATOM     15  C   UNL     1      44.176   3.940  10.927  0.00  0.00    +0.000 A 
ENDBRANCH   8  10
ENDBRANCH   1   4
BRANCH   1  16
ATOM     16  N   UNL     1      48.136   7.224  14.947  0.00  0.00    +0.000 N 
ATOM     17  H   UNL     1      47.833   8.025  15.489  0.00  0.00    +0.000 HD
BRANCH  16  23
ATOM     18  C   UNL     1      48.432   5.174  16.378  0.00  0.00    +0.000 A 
ATOM     19  C   UNL     1      49.330   4.517  17.240  0.00  0.00    +0.000 A 
ATOM     20  C   UNL     1      50.574   5.076  17.526  0.00  0.00    +0.000 A 
ATOM     21  C   UNL     1      50.888   6.276  16.932  0.00  0.00    +0.000 A 
ATOM     22  N   UNL     1      50.060   6.928  16.090  0.00  0.00    +0.000 NA
ATOM     23  C   UNL     1      48.850   6.389  15.803  0.00  0.00    +0.000 A 
BRANCH  18  25
ATOM     24  C   UNL     1      47.045   3.898  14.910  0.00  0.00    +0.000 C 
ATOM     25  O   UNL     1      47.184   4.673  16.101  0.00  0.00    +0.000 OA
ENDBRANCH  18  25
BRANCH  20  26
ATOM     26  C   UNL     1      51.491   4.441  18.414  0.00  0.00    +0.000 C 
ATOM     27  N   UNL     1      52.241   3.922  19.134  0.00  0.00    +0.000 NA
ENDBRANCH  20  26
ENDBRANCH  16  23
ENDBRANCH   1  16
TORSDOF 6
ENDMDL
