MODEL 1
REMARK VINA RESULT:    -7.670      0.000      0.000
REMARK INTER + INTRA:         -11.235
REMARK INTER:                 -10.585
REMARK INTRA:                  -0.650
REMARK UNBOUND:                -0.650
REMARK  Name = 
REMARK  7 active torsions:
REMARK  status: ('A' for Active; 'I' for Inactive)
REMARK    1  A    between atoms: N_1  and  C_2
REMARK    2  A    between atoms: C_2  and  C_3
REMARK    3  A    between atoms: C_7  and  C_8
REMARK    4  A    between atoms: C_8  and  C_9
REMARK    5  A    between atoms: C_9  and  N_10
REMARK    6  A    between atoms: N_10  and  C_11
REMARK    7  A    between atoms: C_14  and  C_15
REMARK                            x       y       z     vdW  Elec       q    Type
REMARK                         _______ _______ _______ _____ _____    ______ ____
ROOT
ATOM      1  N   UNL     1      43.562   4.692   9.586  0.00  0.00    +0.000 N 
ATOM      2  H   UNL     1      43.573   5.662   9.274  0.00  0.00    +0.000 HD
ENDROOT
BRANCH   1   3
ATOM      3  C   UNL     1      44.614   3.948   9.023  0.00  0.00    +0.000 A 
ATOM      4  C   UNL     1      44.722   2.560   9.152  0.00  0.00    +0.000 A 
ATOM      5  C   UNL     1      45.733   1.857   8.498  0.00  0.00    +0.000 A 
ATOM      6  C   UNL     1      46.613   2.563   7.694  0.00  0.00    +0.000 A 
ATOM      7  N   UNL     1      46.545   3.908   7.505  0.00  0.00    +0.000 NA
ATOM      8  C   UNL     1      45.540   4.549   8.160  0.00  0.00    +0.000 A 
BRANCH   6   9
ATOM      9  C   UNL     1      47.686   1.821   6.955  0.00  0.00    +0.000 C 
ATOM     10  N   UNL     1      48.585   2.602   6.283  0.00  0.00    +0.000 N 
ATOM     11  O   UNL     1      47.759   0.601   6.943  0.00  0.00    +0.000 OA
ATOM     12  H   UNL     1      48.472   3.610   6.288  0.00  0.00    +0.000 HD
ATOM     13  H   UNL     1      49.306   2.165   5.728  0.00  0.00    +0.000 HD
ENDBRANCH   6   9
ENDBRANCH   1   3
BRANCH   1  14
ATOM     14  C   UNL     1      43.349   4.568  11.034  0.00  0.00    +0.000 C 
BRANCH  14  15
ATOM     15  C   UNL     1      43.557   5.910  11.748  0.00  0.00    +0.000 C 
BRANCH  15  20
ATOM     16  C   UNL     1      46.790   5.360  13.710  0.00  0.00    +0.000 A 
ATOM     17  C   UNL     1      47.693   6.121  12.958  0.00  0.00    +0.000 A 
ATOM     18  C   UNL     1      47.253   6.849  11.852  0.00  0.00    +0.000 A 
ATOM     19  C   UNL     1      45.911   6.810  11.475  0.00  0.00    +0.000 A 
ATOM     20  C   UNL     1      44.991   6.048  12.208  0.00  0.00    +0.000 A 
ATOM     21  C   UNL     1      45.441   5.334  13.328  0.00  0.00    +0.000 A 
BRANCH  16  22
ATOM     22  C   UNL     1      47.272   4.511  14.858  0.00  0.00    +0.000 C 
BRANCH  22  23
ATOM     23  N   UNL     1      47.379   3.115  14.452  0.00  0.00    +0.000 NA
ATOM     24  H   UNL     1      48.243   2.724  14.820  0.00  0.00    +0.000 HD
ATOM     25  H   UNL     1      47.452   3.074  13.436  0.00  0.00    +0.000 HD
ENDBRANCH  22  23
ENDBRANCH  16  22
ENDBRANCH  15  20
ENDBRANCH  14  15
ENDBRANCH   1  14
TORSDOF 7
ENDMDL
MODEL 2
REMARK VINA RESULT:    -7.556      1.723      2.506
REMARK INTER + INTRA:         -11.077
REMARK INTER:                 -10.491
REMARK INTRA:                  -0.586
REMARK UNBOUND:                -0.650
REMARK  Name = 
REMARK  7 active torsions:
REMARK  status: ('A' for Active; 'I' for Inactive)
REMARK    1  A    between atoms: N_1  and  C_2
REMARK    2  A    between atoms: C_2  and  C_3
REMARK    3  A    between atoms: C_7  and  C_8
REMARK    4  A    between atoms: C_8  and  C_9
REMARK    5  A    between atoms: C_9  and  N_10
REMARK    6  A    between atoms: N_10  and  C_11
REMARK    7  A    between atoms: C_14  and  C_15
REMARK                            x       y       z     vdW  Elec       q    Type
REMARK                         _______ _______ _______ _____ _____    ______ ____
ROOT
ATOM      1  N   UNL     1      43.654   4.428  10.257  0.00  0.00    +0.000 N 
ATOM      2  H   UNL     1      43.920   5.397  10.423  0.00  0.00    +0.000 HD
ENDROOT
BRANCH   1   3
ATOM      3  C   UNL     1      44.535   3.786   9.370  0.00  0.00    +0.000 A 
ATOM      4  C   UNL     1      45.347   4.477   8.465  0.00  0.00    +0.000 A 
ATOM      5  C   UNL     1      46.271   3.800   7.671  0.00  0.00    +0.000 A 
ATOM      6  C   UNL     1      46.387   2.427   7.818  0.00  0.00    +0.000 A 
ATOM      7  N   UNL     1      45.646   1.700   8.699  0.00  0.00    +0.000 NA
ATOM      8  C   UNL     1      44.763   2.405   9.454  0.00  0.00    +0.000 A 
BRANCH   6   9
ATOM      9  C   UNL     1      47.399   1.685   6.998  0.00  0.00    +0.000 C 
ATOM     10  N   UNL     1      48.443   2.436   6.532  0.00  0.00    +0.000 N 
ATOM     11  O   UNL     1      47.304   0.492   6.751  0.00  0.00    +0.000 OA
ATOM     12  H   UNL     1      48.470   3.429   6.729  0.00  0.00    +0.000 HD
ATOM     13  H   UNL     1      49.135   2.007   5.936  0.00  0.00    +0.000 HD
ENDBRANCH   6   9
ENDBRANCH   1   3
BRANCH   1  14
ATOM     14  C   UNL     1      43.308   3.717  11.495  0.00  0.00    +0.000 C 
BRANCH  14  15
ATOM     15  C   UNL     1      43.327   4.660  12.706  0.00  0.00    +0.000 C 
BRANCH  15  20
ATOM     16  C   UNL     1      46.005   7.380  12.876  0.00  0.00    +0.000 A 
ATOM     17  C   UNL     1      47.124   6.632  13.262  0.00  0.00    +0.000 A 
ATOM     18  C   UNL     1      47.028   5.249  13.419  0.00  0.00    +0.000 A 
ATOM     19  C   UNL     1      45.810   4.602  13.210  0.00  0.00    +0.000 A 
ATOM     20  C   UNL     1      44.676   5.332  12.831  0.00  0.00    +0.000 A 
ATOM     21  C   UNL     1      44.788   6.720  12.659  0.00  0.00    +0.000 A 
BRANCH  16  22
ATOM     22  C   UNL     1      46.083   8.882  12.779  0.00  0.00    +0.000 C 
BRANCH  22  23
ATOM     23  N   UNL     1      44.747   9.466  12.809  0.00  0.00    +0.000 NA
ATOM     24  H   UNL     1      44.257   9.140  13.638  0.00  0.00    +0.000 HD
ATOM     25  H   UNL     1      44.222   9.122  12.006  0.00  0.00    +0.000 HD
ENDBRANCH  22  23
ENDBRANCH  16  22
ENDBRANCH  15  20
ENDBRANCH  14  15
ENDBRANCH   1  14
TORSDOF 7
ENDMDL
MODEL 3
REMARK VINA RESULT:    -6.954      1.566      1.938
REMARK INTER + INTRA:         -10.246
REMARK INTER:                  -9.558
REMARK INTRA:                  -0.689
REMARK UNBOUND:                -0.650
REMARK  Name = 
REMARK  7 active torsions:
REMARK  status: ('A' for Active; 'I' for Inactive)
REMARK    1  A    between atoms: N_1  and  C_2
REMARK    2  A    between atoms: C_2  and  C_3
REMARK    3  A    between atoms: C_7  and  C_8
REMARK    4  A    between atoms: C_8  and  C_9
REMARK    5  A    between atoms: C_9  and  N_10
REMARK    6  A    between atoms: N_10  and  C_11
REMARK    7  A    between atoms: C_14  and  C_15
REMARK                            x       y       z     vdW  Elec       q    Type
REMARK                         _______ _______ _______ _____ _____    ______ ____
ROOT
ATOM      1  N   UNL     1      43.873   4.745  10.068  0.00  0.00    +0.000 N 
ATOM      2  H   UNL     1      43.045   5.083   9.581  0.00  0.00    +0.000 HD
ENDROOT
BRANCH   1   3
ATOM      3  C   UNL     1      44.732   4.036   9.211  0.00  0.00    +0.000 A 
ATOM      4  C   UNL     1      45.676   4.659   8.388  0.00  0.00    +0.000 A 
ATOM      5  C   UNL     1      46.568   3.906   7.625  0.00  0.00    +0.000 A 
ATOM      6  C   UNL     1      46.516   2.525   7.722  0.00  0.00    +0.000 A 
ATOM      7  N   UNL     1      45.641   1.859   8.523  0.00  0.00    +0.000 NA
ATOM      8  C   UNL     1      44.795   2.636   9.251  0.00  0.00    +0.000 A 
BRANCH   6   9
ATOM      9  C   UNL     1      47.489   1.699   6.935  0.00  0.00    +0.000 C 
ATOM     10  N   UNL     1      48.510   2.394   6.347  0.00  0.00    +0.000 N 
ATOM     11  O   UNL     1      47.384   0.487   6.816  0.00  0.00    +0.000 OA
ATOM     12  H   UNL     1      48.546   3.403   6.440  0.00  0.00    +0.000 HD
ATOM     13  H   UNL     1      49.174   1.904   5.766  0.00  0.00    +0.000 HD
ENDBRANCH   6   9
ENDBRANCH   1   3
BRANCH   1  14
ATOM     14  C   UNL     1      44.477   5.768  10.932  0.00  0.00    +0.000 C 
BRANCH  14  15
ATOM     15  C   UNL     1      45.316   5.134  12.049  0.00  0.00    +0.000 C 
BRANCH  15  20
ATOM     16  C   UNL     1      48.229   6.695  13.969  0.00  0.00    +0.000 A 
ATOM     17  C   UNL     1      48.823   7.473  12.968  0.00  0.00    +0.000 A 
ATOM     18  C   UNL     1      48.260   7.534  11.694  0.00  0.00    +0.000 A 
ATOM     19  C   UNL     1      47.108   6.805  11.400  0.00  0.00    +0.000 A 
ATOM     20  C   UNL     1      46.500   6.013  12.383  0.00  0.00    +0.000 A 
ATOM     21  C   UNL     1      47.066   5.972  13.666  0.00  0.00    +0.000 A 
BRANCH  16  22
ATOM     22  C   UNL     1      48.875   6.563  15.324  0.00  0.00    +0.000 C 
BRANCH  22  23
ATOM     23  N   UNL     1      50.316   6.756  15.224  0.00  0.00    +0.000 NA
ATOM     24  H   UNL     1      50.663   7.154  16.094  0.00  0.00    +0.000 HD
ATOM     25  H   UNL     1      50.506   7.442  14.495  0.00  0.00    +0.000 HD
ENDBRANCH  22  23
ENDBRANCH  16  22
ENDBRANCH  15  20
ENDBRANCH  14  15
ENDBRANCH   1  14
TORSDOF 7
ENDMDL
MODEL 4
REMARK VINA RESULT:    -6.173      3.141      5.490
REMARK INTER + INTRA:          -9.169
REMARK INTER:                  -8.649
REMARK INTRA:                  -0.520
REMARK UNBOUND:                -0.650
REMARK  Name = 
REMARK  7 active torsions:
REMARK  status: ('A' for Active; 'I' for Inactive)
REMARK    1  A    between atoms: N_1  and  C_2
REMARK    2  A    between atoms: C_2  and  C_3
REMARK    3  A    between atoms: C_7  and  C_8
REMARK    4  A    between atoms: C_8  and  C_9
REMARK    5  A    between atoms: C_9  and  N_10
REMARK    6  A    between atoms: N_10  and  C_11
REMARK    7  A    between atoms: C_14  and  C_15
REMARK                            x       y       z     vdW  Elec       q    Type
REMARK                         _______ _______ _______ _____ _____    ______ ____
ROOT
ATOM      1  N   UNL     1      47.007   7.147  13.760  0.00  0.00    +0.000 N 
ATOM      2  H   UNL     1      46.918   8.069  13.338  0.00  0.00    +0.000 HD
ENDROOT
BRANCH   1   3
ATOM      3  C   UNL     1      46.234   6.184  13.088  0.00  0.00    +0.000 A 
ATOM      4  C   UNL     1      45.761   6.360  11.783  0.00  0.00    +0.000 A 
ATOM      5  C   UNL     1      45.076   5.337  11.127  0.00  0.00    +0.000 A 
ATOM      6  C   UNL     1      44.900   4.132  11.787  0.00  0.00    +0.000 A 
ATOM      7  N   UNL     1      45.359   3.889  13.044  0.00  0.00    +0.000 NA
ATOM      8  C   UNL     1      46.024   4.914  13.641  0.00  0.00    +0.000 A 
BRANCH   6   9
ATOM      9  C   UNL     1      44.196   3.010  11.086  0.00  0.00    +0.000 C 
ATOM     10  N   UNL     1      44.919   2.381  10.110  0.00  0.00    +0.000 N 
ATOM     11  O   UNL     1      43.052   2.674  11.356  0.00  0.00    +0.000 OA
ATOM     12  H   UNL     1      45.853   2.709   9.891  0.00  0.00    +0.000 HD
ATOM     13  H   UNL     1      44.488   1.647   9.568  0.00  0.00    +0.000 HD
ENDBRANCH   6   9
ENDBRANCH   1   3
BRANCH   1  14
ATOM     14  C   UNL     1      48.402   6.798  14.064  0.00  0.00    +0.000 C 
BRANCH  14  15
ATOM     15  C   UNL     1      48.814   7.297  15.455  0.00  0.00    +0.000 C 
BRANCH  15  20
ATOM     16  C   UNL     1      48.886   3.939  17.279  0.00  0.00    +0.000 A 
ATOM     17  C   UNL     1      50.216   3.898  17.714  0.00  0.00    +0.000 A 
ATOM     18  C   UNL     1      51.073   4.970  17.463  0.00  0.00    +0.000 A 
ATOM     19  C   UNL     1      50.617   6.085  16.762  0.00  0.00    +0.000 A 
ATOM     20  C   UNL     1      49.292   6.144  16.310  0.00  0.00    +0.000 A 
ATOM     21  C   UNL     1      48.433   5.068  16.582  0.00  0.00    +0.000 A 
BRANCH  16  22
ATOM     22  C   UNL     1      47.977   2.753  17.478  0.00  0.00    +0.000 C 
BRANCH  22  23
ATOM     23  N   UNL     1      46.587   3.184  17.565  0.00  0.00    +0.000 NA
ATOM     24  H   UNL     1      46.016   2.411  17.900  0.00  0.00    +0.000 HD
ATOM     25  H   UNL     1      46.254   3.406  16.628  0.00  0.00    +0.000 HD
ENDBRANCH  22  23
ENDBRANCH  16  22
ENDBRANCH  15  20
ENDBRANCH  14  15
ENDBRANCH   1  14
TORSDOF 7
ENDMDL
MODEL 5
REMARK VINA RESULT:    -6.165      3.098      6.647
REMARK INTER + INTRA:          -9.158
REMARK INTER:                  -8.446
REMARK INTRA:                  -0.712
REMARK UNBOUND:                -0.650
REMARK  Name = 
REMARK  7 active torsions:
REMARK  status: ('A' for Active; 'I' for Inactive)
REMARK    1  A    between atoms: N_1  and  C_2
REMARK    2  A    between atoms: C_2  and  C_3
REMARK    3  A    between atoms: C_7  and  C_8
REMARK    4  A    between atoms: C_8  and  C_9
REMARK    5  A    between atoms: C_9  and  N_10
REMARK    6  A    between atoms: N_10  and  C_11
REMARK    7  A    between atoms: C_14  and  C_15
REMARK                            x       y       z     vdW  Elec       q    Type
REMARK                         _______ _______ _______ _____ _____    ______ ____
ROOT
ATOM      1  N   UNL     1      47.124   6.483  12.620  0.00  0.00    +0.000 N 
ATOM      2  H   UNL     1      47.955   6.942  12.251  0.00  0.00    +0.000 HD
ENDROOT
BRANCH   1   3
ATOM      3  C   UNL     1      47.431   5.627  13.692  0.00  0.00    +0.000 A 
ATOM      4  C   UNL     1      47.915   6.086  14.922  0.00  0.00    +0.000 A 
ATOM      5  C   UNL     1      48.116   5.206  15.984  0.00  0.00    +0.000 A 
ATOM      6  C   UNL     1      47.799   3.869  15.804  0.00  0.00    +0.000 A 
ATOM      7  N   UNL     1      47.300   3.365  14.642  0.00  0.00    +0.000 NA
ATOM      8  C   UNL     1      47.116   4.262  13.637  0.00  0.00    +0.000 A 
BRANCH   6   9
ATOM      9  C   UNL     1      47.976   2.914  16.945  0.00  0.00    +0.000 C 
ATOM     10  N   UNL     1      46.871   2.721  17.728  0.00  0.00    +0.000 N 
ATOM     11  O   UNL     1      49.034   2.344  17.173  0.00  0.00    +0.000 OA
ATOM     12  H   UNL     1      46.022   3.236  17.527  0.00  0.00    +0.000 HD
ATOM     13  H   UNL     1      46.936   2.125  18.539  0.00  0.00    +0.000 HD
ENDBRANCH   6   9
ENDBRANCH   1   3
BRANCH   1  14
ATOM     14  C   UNL     1      45.999   7.410  12.798  0.00  0.00    +0.000 C 
BRANCH  14  15
ATOM     15  C   UNL     1      44.958   7.249  11.683  0.00  0.00    +0.000 C 
BRANCH  15  20
ATOM     16  C   UNL     1      44.128   3.666  10.642  0.00  0.00    +0.000 A 
ATOM     17  C   UNL     1      43.488   3.193  11.794  0.00  0.00    +0.000 A 
ATOM     18  C   UNL     1      43.280   4.040  12.883  0.00  0.00    +0.000 A 
ATOM     19  C   UNL     1      43.724   5.361  12.841  0.00  0.00    +0.000 A 
ATOM     20  C   UNL     1      44.375   5.853  11.702  0.00  0.00    +0.000 A 
ATOM     21  C   UNL     1      44.564   4.998  10.605  0.00  0.00    +0.000 A 
BRANCH  16  22
ATOM     22  C   UNL     1      44.425   2.737   9.493  0.00  0.00    +0.000 C 
BRANCH  22  23
ATOM     23  N   UNL     1      44.355   3.453   8.225  0.00  0.00    +0.000 NA
ATOM     24  H   UNL     1      45.294   3.722   7.940  0.00  0.00    +0.000 HD
ATOM     25  H   UNL     1      43.836   4.318   8.366  0.00  0.00    +0.000 HD
ENDBRANCH  22  23
ENDBRANCH  16  22
ENDBRANCH  15  20
ENDBRANCH  14  15
ENDBRANCH   1  14
TORSDOF 7
ENDMDL
MODEL 6
REMARK VINA RESULT:    -6.154      2.879      6.623
REMARK INTER + INTRA:          -9.143
REMARK INTER:                  -8.994
REMARK INTRA:                  -0.149
REMARK UNBOUND:                -0.650
REMARK  Name = 
REMARK  7 active torsions:
REMARK  status: ('A' for Active; 'I' for Inactive)
REMARK    1  A    between atoms: N_1  and  C_2
REMARK    2  A    between atoms: C_2  and  C_3
REMARK    3  A    between atoms: C_7  and  C_8
REMARK    4  A    between atoms: C_8  and  C_9
REMARK    5  A    between atoms: C_9  and  N_10
REMARK    6  A    between atoms: N_10  and  C_11
REMARK    7  A    between atoms: C_14  and  C_15
REMARK                            x       y       z     vdW  Elec       q    Type
REMARK                         _______ _______ _______ _____ _____    ______ ____
ROOT
ATOM      1  N   UNL     1      45.138   3.764  11.924  0.00  0.00    +0.000 N 
ATOM      2  H   UNL     1      45.550   3.269  11.135  0.00  0.00    +0.000 HD
ENDROOT
BRANCH   1   3
ATOM      3  C   UNL     1      46.074   4.586  12.574  0.00  0.00    +0.000 A 
ATOM      4  C   UNL     1      46.336   5.903  12.183  0.00  0.00    +0.000 A 
ATOM      5  C   UNL     1      47.207   6.708  12.917  0.00  0.00    +0.000 A 
ATOM      6  C   UNL     1      47.786   6.182  14.060  0.00  0.00    +0.000 A 
ATOM      7  N   UNL     1      47.552   4.919  14.509  0.00  0.00    +0.000 NA
ATOM      8  C   UNL     1      46.693   4.175  13.763  0.00  0.00    +0.000 A 
BRANCH   6   9
ATOM      9  C   UNL     1      48.699   7.043  14.881  0.00  0.00    +0.000 C 
ATOM     10  N   UNL     1      48.114   8.137  15.457  0.00  0.00    +0.000 N 
ATOM     11  O   UNL     1      49.887   6.795  15.029  0.00  0.00    +0.000 OA
ATOM     12  H   UNL     1      47.134   8.328  15.284  0.00  0.00    +0.000 HD
ATOM     13  H   UNL     1      48.683   8.783  15.985  0.00  0.00    +0.000 HD
ENDBRANCH   6   9
ENDBRANCH   1   3
BRANCH   1  14
ATOM     14  C   UNL     1      43.832   4.354  11.602  0.00  0.00    +0.000 C 
BRANCH  14  15
ATOM     15  C   UNL     1      43.707   4.651  10.102  0.00  0.00    +0.000 C 
BRANCH  15  20
ATOM     16  C   UNL     1      46.316   3.200   7.716  0.00  0.00    +0.000 A 
ATOM     17  C   UNL     1      46.158   1.828   7.948  0.00  0.00    +0.000 A 
ATOM     18  C   UNL     1      45.182   1.370   8.832  0.00  0.00    +0.000 A 
ATOM     19  C   UNL     1      44.365   2.276   9.507  0.00  0.00    +0.000 A 
ATOM     20  C   UNL     1      44.510   3.654   9.297  0.00  0.00    +0.000 A 
ATOM     21  C   UNL     1      45.484   4.103   8.393  0.00  0.00    +0.000 A 
BRANCH  16  22
ATOM     22  C   UNL     1      47.419   3.705   6.822  0.00  0.00    +0.000 C 
BRANCH  22  23
ATOM     23  N   UNL     1      48.355   2.632   6.509  0.00  0.00    +0.000 NA
ATOM     24  H   UNL     1      48.285   2.403   5.520  0.00  0.00    +0.000 HD
ATOM     25  H   UNL     1      48.079   1.796   7.022  0.00  0.00    +0.000 HD
ENDBRANCH  22  23
ENDBRANCH  16  22
ENDBRANCH  15  20
ENDBRANCH  14  15
ENDBRANCH   1  14
TORSDOF 7
ENDMDL
MODEL 7
REMARK VINA RESULT:    -5.805      4.438      7.698
REMARK INTER + INTRA:          -8.661
REMARK INTER:                  -8.269
REMARK INTRA:                  -0.392
REMARK UNBOUND:                -0.650
REMARK  Name = 
REMARK  7 active torsions:
REMARK  status: ('A' for Active; 'I' for Inactive)
REMARK    1  A    between atoms: N_1  and  C_2
REMARK    2  A    between atoms: C_2  and  C_3
REMARK    3  A    between atoms: C_7  and  C_8
REMARK    4  A    between atoms: C_8  and  C_9
REMARK    5  A    between atoms: C_9  and  N_10
REMARK    6  A    between atoms: N_10  and  C_11
REMARK    7  A    between atoms: C_14  and  C_15
REMARK                            x       y       z     vdW  Elec       q    Type
REMARK                         _______ _______ _______ _____ _____    ______ ____
ROOT
ATOM      1  N   UNL     1      47.333   4.735  16.224  0.00  0.00    +0.000 N 
ATOM      2  H   UNL     1      46.618   4.838  16.942  0.00  0.00    +0.000 HD
ENDROOT
BRANCH   1   3
ATOM      3  C   UNL     1      48.421   3.967  16.674  0.00  0.00    +0.000 A 
ATOM      4  C   UNL     1      48.443   2.569  16.623  0.00  0.00    +0.000 A 
ATOM      5  C   UNL     1      49.583   1.858  16.996  0.00  0.00    +0.000 A 
ATOM      6  C   UNL     1      50.703   2.568  17.394  0.00  0.00    +0.000 A 
ATOM      7  N   UNL     1      50.755   3.927  17.440  0.00  0.00    +0.000 NA
ATOM      8  C   UNL     1      49.622   4.577  17.062  0.00  0.00    +0.000 A 
BRANCH   6   9
ATOM      9  C   UNL     1      51.949   1.823  17.767  0.00  0.00    +0.000 C 
ATOM     10  N   UNL     1      51.789   0.481  17.983  0.00  0.00    +0.000 N 
ATOM     11  O   UNL     1      53.038   2.367  17.879  0.00  0.00    +0.000 OA
ATOM     12  H   UNL     1      50.865   0.072  17.914  0.00  0.00    +0.000 HD
ATOM     13  H   UNL     1      52.579  -0.071  18.281  0.00  0.00    +0.000 HD
ENDBRANCH   6   9
ENDBRANCH   1   3
BRANCH   1  14
ATOM     14  C   UNL     1      46.769   4.398  14.910  0.00  0.00    +0.000 C 
BRANCH  14  15
ATOM     15  C   UNL     1      46.996   5.528  13.897  0.00  0.00    +0.000 C 
BRANCH  15  20
ATOM     16  C   UNL     1      44.051   4.425  11.725  0.00  0.00    +0.000 A 
ATOM     17  C   UNL     1      43.642   5.651  11.186  0.00  0.00    +0.000 A 
ATOM     18  C   UNL     1      44.342   6.821  11.481  0.00  0.00    +0.000 A 
ATOM     19  C   UNL     1      45.446   6.782  12.332  0.00  0.00    +0.000 A 
ATOM     20  C   UNL     1      45.869   5.568  12.890  0.00  0.00    +0.000 A 
ATOM     21  C   UNL     1      45.168   4.395  12.572  0.00  0.00    +0.000 A 
BRANCH  16  22
ATOM     22  C   UNL     1      43.254   3.171  11.472  0.00  0.00    +0.000 C 
BRANCH  22  23
ATOM     23  N   UNL     1      43.590   2.146  12.452  0.00  0.00    +0.000 NA
ATOM     24  H   UNL     1      42.777   1.956  13.032  0.00  0.00    +0.000 HD
ATOM     25  H   UNL     1      44.312   2.510  13.073  0.00  0.00    +0.000 HD
ENDBRANCH  22  23
ENDBRANCH  16  22
ENDBRANCH  15  20
ENDBRANCH  14  15
ENDBRANCH   1  14
TORSDOF 7
ENDMDL
MODEL 8
REMARK VINA RESULT:    -5.673      4.555      8.054
REMARK INTER + INTRA:          -8.479
REMARK INTER:                  -8.087
REMARK INTRA:                  -0.392
REMARK UNBOUND:                -0.650
REMARK  Name = 
REMARK  7 active torsions:
REMARK  status: ('A' for Active; 'I' for Inactive)
REMARK    1  A    between atoms: N_1  and  C_2
REMARK    2  A    between atoms: C_2  and  C_3
REMARK    3  A    between atoms: C_7  and  C_8
REMARK    4  A    between atoms: C_8  and  C_9
REMARK    5  A    between atoms: C_9  and  N_10
REMARK    6  A    between atoms: N_10  and  C_11
REMARK    7  A    between atoms: C_14  and  C_15
REMARK                            x       y       z     vdW  Elec       q    Type
REMARK                         _______ _______ _______ _____ _____    ______ ____
ROOT
ATOM      1  N   UNL     1      46.954   3.874  16.129  0.00  0.00    +0.000 N 
ATOM      2  H   UNL     1      46.371   3.040  16.094  0.00  0.00    +0.000 HD
ENDROOT
BRANCH   1   3
ATOM      3  C   UNL     1      48.222   3.607  16.674  0.00  0.00    +0.000 A 
ATOM      4  C   UNL     1      48.817   2.342  16.640  0.00  0.00    +0.000 A 
ATOM      5  C   UNL     1      50.115   2.149  17.114  0.00  0.00    +0.000 A 
ATOM      6  C   UNL     1      50.812   3.246  17.594  0.00  0.00    +0.000 A 
ATOM      7  N   UNL     1      50.300   4.506  17.629  0.00  0.00    +0.000 NA
ATOM      8  C   UNL     1      49.034   4.645  17.153  0.00  0.00    +0.000 A 
BRANCH   6   9
ATOM      9  C   UNL     1      52.220   3.065  18.075  0.00  0.00    +0.000 C 
ATOM     10  N   UNL     1      52.555   1.792  18.449  0.00  0.00    +0.000 N 
ATOM     11  O   UNL     1      53.021   3.986  18.139  0.00  0.00    +0.000 OA
ATOM     12  H   UNL     1      51.854   1.061  18.414  0.00  0.00    +0.000 HD
ATOM     13  H   UNL     1      53.473   1.611  18.826  0.00  0.00    +0.000 HD
ENDBRANCH   6   9
ENDBRANCH   1   3
BRANCH   1  14
ATOM     14  C   UNL     1      46.908   4.647  14.880  0.00  0.00    +0.000 C 
BRANCH  14  15
ATOM     15  C   UNL     1      46.800   3.728  13.656  0.00  0.00    +0.000 C 
BRANCH  15  20
ATOM     16  C   UNL     1      44.422   5.936  11.636  0.00  0.00    +0.000 A 
ATOM     17  C   UNL     1      43.647   4.969  10.983  0.00  0.00    +0.000 A 
ATOM     18  C   UNL     1      43.857   3.612  11.231  0.00  0.00    +0.000 A 
ATOM     19  C   UNL     1      44.853   3.206  12.118  0.00  0.00    +0.000 A 
ATOM     20  C   UNL     1      45.646   4.156  12.776  0.00  0.00    +0.000 A 
ATOM     21  C   UNL     1      45.415   5.519  12.533  0.00  0.00    +0.000 A 
BRANCH  16  22
ATOM     22  C   UNL     1      44.252   7.399  11.316  0.00  0.00    +0.000 C 
BRANCH  22  23
ATOM     23  N   UNL     1      42.856   7.701  11.025  0.00  0.00    +0.000 NA
ATOM     24  H   UNL     1      42.781   8.662  10.701  0.00  0.00    +0.000 HD
ATOM     25  H   UNL     1      42.321   7.644  11.891  0.00  0.00    +0.000 HD
ENDBRANCH  22  23
ENDBRANCH  16  22
ENDBRANCH  15  20
ENDBRANCH  14  15
ENDBRANCH   1  14
TORSDOF 7
ENDMDL
MODEL 9
REMARK VINA RESULT:    -5.548      3.520      7.244
REMARK INTER + INTRA:          -8.306
REMARK INTER:                  -7.896
REMARK INTRA:                  -0.410
REMARK UNBOUND:                -0.650
REMARK  Name = 
REMARK  7 active torsions:
REMARK  status: ('A' for Active; 'I' for Inactive)
REMARK    1  A    between atoms: N_1  and  C_2
REMARK    2  A    between atoms: C_2  and  C_3
REMARK    3  A    between atoms: C_7  and  C_8
REMARK    4  A    between atoms: C_8  and  C_9
REMARK    5  A    between atoms: C_9  and  N_10
REMARK    6  A    between atoms: N_10  and  C_11
REMARK    7  A    between atoms: C_14  and  C_15
REMARK                            x       y       z     vdW  Elec       q    Type
REMARK                         _______ _______ _______ _____ _____    ______ ____
ROOT
ATOM      1  N   UNL     1      45.337   6.767  11.142  0.00  0.00    +0.000 N 
ATOM      2  H   UNL     1      44.426   7.198  11.288  0.00  0.00    +0.000 HD
ENDROOT
BRANCH   1   3
ATOM      3  C   UNL     1      46.201   6.982  12.230  0.00  0.00    +0.000 A 
ATOM      4  C   UNL     1      47.089   6.011  12.705  0.00  0.00    +0.000 A 
ATOM      5  C   UNL     1      47.989   6.303  13.728  0.00  0.00    +0.000 A 
ATOM      6  C   UNL     1      48.004   7.588  14.247  0.00  0.00    +0.000 A 
ATOM      7  N   UNL     1      47.185   8.584  13.811  0.00  0.00    +0.000 NA
ATOM      8  C   UNL     1      46.328   8.252  12.809  0.00  0.00    +0.000 A 
BRANCH   6   9
ATOM      9  C   UNL     1      48.987   7.932  15.324  0.00  0.00    +0.000 C 
ATOM     10  N   UNL     1      50.067   7.097  15.423  0.00  0.00    +0.000 N 
ATOM     11  O   UNL     1      48.843   8.887  16.072  0.00  0.00    +0.000 OA
ATOM     12  H   UNL     1      50.135   6.295  14.807  0.00  0.00    +0.000 HD
ATOM     13  H   UNL     1      50.743   7.246  16.157  0.00  0.00    +0.000 HD
ENDBRANCH   6   9
ENDBRANCH   1   3
BRANCH   1  14
ATOM     14  C   UNL     1      45.236   5.397  10.623  0.00  0.00    +0.000 C 
BRANCH  14  15
ATOM     15  C   UNL     1      45.502   5.348   9.113  0.00  0.00    +0.000 C 
BRANCH  15  20
ATOM     16  C   UNL     1      46.916   2.278   7.329  0.00  0.00    +0.000 A 
ATOM     17  C   UNL     1      46.181   1.253   7.937  0.00  0.00    +0.000 A 
ATOM     18  C   UNL     1      45.198   1.553   8.881  0.00  0.00    +0.000 A 
ATOM     19  C   UNL     1      44.953   2.877   9.241  0.00  0.00    +0.000 A 
ATOM     20  C   UNL     1      45.682   3.919   8.653  0.00  0.00    +0.000 A 
ATOM     21  C   UNL     1      46.656   3.607   7.692  0.00  0.00    +0.000 A 
BRANCH  16  22
ATOM     22  C   UNL     1      48.030   1.956   6.367  0.00  0.00    +0.000 C 
BRANCH  22  23
ATOM     23  N   UNL     1      47.938   2.797   5.180  0.00  0.00    +0.000 NA
ATOM     24  H   UNL     1      48.064   3.771   5.447  0.00  0.00    +0.000 HD
ATOM     25  H   UNL     1      46.998   2.721   4.795  0.00  0.00    +0.000 HD
ENDBRANCH  22  23
ENDBRANCH  16  22
ENDBRANCH  15  20
ENDBRANCH  14  15
ENDBRANCH   1  14
TORSDOF 7
ENDMDL
