MODEL 1
REMARK VINA RESULT:    -8.138      0.000      0.000
REMARK INTER + INTRA:         -12.101
REMARK INTER:                 -10.992
REMARK INTRA:                  -1.109
REMARK UNBOUND:                -1.109
REMARK  Name = 
REMARK  6 active torsions:
REMARK  status: ('A' for Active; 'I' for Inactive)
REMARK    1  A    between atoms: C_2  and  C_26
REMARK    2  A    between atoms: N_3  and  C_4
REMARK    3  A    between atoms: C_4  and  C_5
REMARK    4  A    between atoms: C_8  and  C_9
REMARK    5  A    between atoms: C_9  and  N_10
REMARK    6  A    between atoms: C_11  and  C_13
REMARK                            x       y       z     vdW  Elec       q    Type
REMARK                         _______ _______ _______ _____ _____    ______ ____
ROOT
ATOM      1  C   UNL     1      44.929   4.560  12.325  0.00  0.00    +0.000 A 
ATOM      2  C   UNL     1      46.204   4.306  12.862  0.00  0.00    +0.000 A 
ATOM      3  C   UNL     1      47.014   5.346  13.330  0.00  0.00    +0.000 A 
ATOM      4  C   UNL     1      46.581   6.675  13.255  0.00  0.00    +0.000 A 
ATOM      5  C   UNL     1      45.306   6.936  12.733  0.00  0.00    +0.000 A 
ATOM      6  C   UNL     1      44.494   5.892  12.265  0.00  0.00    +0.000 A 
ATOM      7 CL   UNL     1      42.954   6.317  11.606  0.00  0.00    +0.000 Cl
ENDROOT
BRANCH   1   8
ATOM      8  C   UNL     1      44.103   3.392  11.846  0.00  0.00    +0.000 C 
BRANCH   8  11
ATOM      9  O   UNL     1      44.066   4.260   9.200  0.00  0.00    +0.000 OA
ATOM     10  C   UNL     1      44.697   3.246   9.476  0.00  0.00    +0.000 C 
ATOM     11  N   UNL     1      44.732   2.694  10.741  0.00  0.00    +0.000 N 
ATOM     12  H   UNL     1      45.471   2.043  10.971  0.00  0.00    +0.000 HD
BRANCH  10  13
ATOM     13  C   UNL     1      45.503   2.577   8.418  0.00  0.00    +0.000 A 
ATOM     14  C   UNL     1      45.781   1.210   8.563  0.00  0.00    +0.000 A 
ATOM     15  C   UNL     1      46.549   0.551   7.606  0.00  0.00    +0.000 A 
ATOM     16 CL   UNL     1      46.875  -1.130   7.783  0.00  0.00    +0.000 Cl
ATOM     17  C   UNL     1      47.058   1.239   6.509  0.00  0.00    +0.000 A 
ATOM     18  C   UNL     1      46.795   2.601   6.379  0.00  0.00    +0.000 A 
ATOM     19 CL   UNL     1      47.443   3.464   5.037  0.00  0.00    +0.000 Cl
ATOM     20  C   UNL     1      46.023   3.279   7.325  0.00  0.00    +0.000 A 
ENDBRANCH  10  13
ENDBRANCH   8  11
ENDBRANCH   1   8
BRANCH   4  21
ATOM     21  C   UNL     1      47.462   7.797  13.744  0.00  0.00    +0.000 C 
BRANCH  21  22
ATOM     22  N   UNL     1      47.898   7.576  15.101  0.00  0.00    +0.000 N 
ATOM     23  C   UNL     1      49.165   7.120  15.366  0.00  0.00    +0.000 C 
ATOM     24  O   UNL     1      49.996   6.960  14.474  0.00  0.00    +0.000 OA
ATOM     25  H   UNL     1      47.177   7.486  15.812  0.00  0.00    +0.000 HD
BRANCH  23  26
ATOM     26  C   UNL     1      49.502   6.881  16.776  0.00  0.00    +0.000 A 
ATOM     27  C   UNL     1      50.439   7.689  17.406  0.00  0.00    +0.000 A 
ATOM     28  S   UNL     1      50.686   7.299  19.048  0.00  0.00    +0.000 S 
ATOM     29  C   UNL     1      49.583   6.007  18.963  0.00  0.00    +0.000 A 
ATOM     30  N   UNL     1      49.339   5.225  20.049  0.00  0.00    +0.000 NA
ATOM     31  C   UNL     1      48.502   4.265  19.838  0.00  0.00    +0.000 A 
ATOM     32  N   UNL     1      47.883   4.019  18.640  0.00  0.00    +0.000 N 
ATOM     33  C   UNL     1      48.078   4.798  17.525  0.00  0.00    +0.000 A 
ATOM     34  O   UNL     1      47.475   4.578  16.479  0.00  0.00    +0.000 OA
ATOM     35  C   UNL     1      49.021   5.886  17.705  0.00  0.00    +0.000 A 
ATOM     36  H   UNL     1      47.229   3.257  18.544  0.00  0.00    +0.000 HD
ENDBRANCH  23  26
ENDBRANCH  21  22
ENDBRANCH   4  21
TORSDOF 6
ENDMDL
MODEL 2
REMARK VINA RESULT:    -7.873      0.631      1.689
REMARK INTER + INTRA:         -11.744
REMARK INTER:                 -10.725
REMARK INTRA:                  -1.018
REMARK UNBOUND:                -1.109
REMARK  Name = 
REMARK  6 active torsions:
REMARK  status: ('A' for Active; 'I' for Inactive)
REMARK    1  A    between atoms: C_2  and  C_26
REMARK    2  A    between atoms: N_3  and  C_4
REMARK    3  A    between atoms: C_4  and  C_5
REMARK    4  A    between atoms: C_8  and  C_9
REMARK    5  A    between atoms: C_9  and  N_10
REMARK    6  A    between atoms: C_11  and  C_13
REMARK                            x       y       z     vdW  Elec       q    Type
REMARK                         _______ _______ _______ _____ _____    ______ ____
ROOT
ATOM      1  C   UNL     1      45.227   4.688  12.522  0.00  0.00    +0.000 A 
ATOM      2  C   UNL     1      46.399   4.358  13.226  0.00  0.00    +0.000 A 
ATOM      3  C   UNL     1      47.260   5.351  13.706  0.00  0.00    +0.000 A 
ATOM      4  C   UNL     1      46.985   6.704  13.478  0.00  0.00    +0.000 A 
ATOM      5  C   UNL     1      45.812   7.042  12.789  0.00  0.00    +0.000 A 
ATOM      6  C   UNL     1      44.948   6.046  12.308  0.00  0.00    +0.000 A 
ATOM      7 CL   UNL     1      43.546   6.562  11.440  0.00  0.00    +0.000 Cl
ENDROOT
BRANCH   1   8
ATOM      8  C   UNL     1      44.337   3.570  12.037  0.00  0.00    +0.000 C 
BRANCH   8  11
ATOM      9  O   UNL     1      44.055   4.260   9.354  0.00  0.00    +0.000 OA
ATOM     10  C   UNL     1      44.768   3.306   9.643  0.00  0.00    +0.000 C 
ATOM     11  N   UNL     1      44.929   2.840  10.933  0.00  0.00    +0.000 N 
ATOM     12  H   UNL     1      45.723   2.251  11.145  0.00  0.00    +0.000 HD
BRANCH  10  13
ATOM     13  C   UNL     1      45.537   2.618   8.570  0.00  0.00    +0.000 A 
ATOM     14  C   UNL     1      45.913   3.363   7.443  0.00  0.00    +0.000 A 
ATOM     15  C   UNL     1      46.616   2.752   6.407  0.00  0.00    +0.000 A 
ATOM     16 CL   UNL     1      47.085   3.675   5.032  0.00  0.00    +0.000 Cl
ATOM     17  C   UNL     1      46.941   1.400   6.472  0.00  0.00    +0.000 A 
ATOM     18  C   UNL     1      46.549   0.660   7.585  0.00  0.00    +0.000 A 
ATOM     19 CL   UNL     1      46.925  -1.019   7.660  0.00  0.00    +0.000 Cl
ATOM     20  C   UNL     1      45.848   1.255   8.636  0.00  0.00    +0.000 A 
ENDBRANCH  10  13
ENDBRANCH   8  11
ENDBRANCH   1   8
BRANCH   4  21
ATOM     21  C   UNL     1      47.923   7.772  13.983  0.00  0.00    +0.000 C 
BRANCH  21  22
ATOM     22  N   UNL     1      48.101   7.690  15.412  0.00  0.00    +0.000 N 
ATOM     23  C   UNL     1      49.258   7.182  15.946  0.00  0.00    +0.000 C 
ATOM     24  O   UNL     1      50.210   6.855  15.241  0.00  0.00    +0.000 OA
ATOM     25  H   UNL     1      47.265   7.739  15.987  0.00  0.00    +0.000 HD
BRANCH  23  26
ATOM     26  C   UNL     1      49.329   7.096  17.412  0.00  0.00    +0.000 A 
ATOM     27  C   UNL     1      49.663   8.222  18.152  0.00  0.00    +0.000 A 
ATOM     28  S   UNL     1      49.666   7.959  19.837  0.00  0.00    +0.000 S 
ATOM     29  C   UNL     1      49.264   6.317  19.636  0.00  0.00    +0.000 A 
ATOM     30  N   UNL     1      49.130   5.495  20.710  0.00  0.00    +0.000 NA
ATOM     31  C   UNL     1      48.850   4.270  20.413  0.00  0.00    +0.000 A 
ATOM     32  N   UNL     1      48.689   3.794  19.137  0.00  0.00    +0.000 N 
ATOM     33  C   UNL     1      48.788   4.594  18.024  0.00  0.00    +0.000 A 
ATOM     34  O   UNL     1      48.594   4.147  16.897  0.00  0.00    +0.000 OA
ATOM     35  C   UNL     1      49.113   5.980  18.302  0.00  0.00    +0.000 A 
ATOM     36  H   UNL     1      48.460   2.825  18.973  0.00  0.00    +0.000 HD
ENDBRANCH  23  26
ENDBRANCH  21  22
ENDBRANCH   4  21
TORSDOF 6
ENDMDL
MODEL 3
REMARK VINA RESULT:    -7.283      4.479      7.489
REMARK INTER + INTRA:         -10.947
REMARK INTER:                  -9.849
REMARK INTRA:                  -1.099
REMARK UNBOUND:                -1.109
REMARK  Name = 
REMARK  6 active torsions:
REMARK  status: ('A' for Active; 'I' for Inactive)
REMARK    1  A    between atoms: C_2  and  C_26
REMARK    2  A    between atoms: N_3  and  C_4
REMARK    3  A    between atoms: C_4  and  C_5
REMARK    4  A    between atoms: C_8  and  C_9
REMARK    5  A    between atoms: C_9  and  N_10
REMARK    6  A    between atoms: C_11  and  C_13
REMARK                            x       y       z     vdW  Elec       q    Type
REMARK                         _______ _______ _______ _____ _____    ______ ____
ROOT
ATOM      1  C   UNL     1      44.685   8.221  11.561  0.00  0.00    +0.000 A 
ATOM      2  C   UNL     1      43.962   7.018  11.465  0.00  0.00    +0.000 A 
ATOM      3  C   UNL     1      44.404   5.855  12.104  0.00  0.00    +0.000 A 
ATOM      4  C   UNL     1      45.594   5.854  12.840  0.00  0.00    +0.000 A 
ATOM      5  C   UNL     1      46.313   7.052  12.951  0.00  0.00    +0.000 A 
ATOM      6  C   UNL     1      45.869   8.219  12.312  0.00  0.00    +0.000 A 
ATOM      7 CL   UNL     1      46.843   9.637  12.478  0.00  0.00    +0.000 Cl
ENDROOT
BRANCH   1   8
ATOM      8  C   UNL     1      44.149   9.442  10.855  0.00  0.00    +0.000 C 
BRANCH   8  11
ATOM      9  O   UNL     1      42.068  10.611   9.422  0.00  0.00    +0.000 OA
ATOM     10  C   UNL     1      41.922  10.429  10.625  0.00  0.00    +0.000 C 
ATOM     11  N   UNL     1      42.910   9.914  11.441  0.00  0.00    +0.000 N 
ATOM     12  H   UNL     1      42.652   9.529  12.339  0.00  0.00    +0.000 HD
BRANCH  10  13
ATOM     13  C   UNL     1      40.609  10.736  11.256  0.00  0.00    +0.000 A 
ATOM     14  C   UNL     1      40.604  11.489  12.439  0.00  0.00    +0.000 A 
ATOM     15  C   UNL     1      39.398  11.781  13.073  0.00  0.00    +0.000 A 
ATOM     16 CL   UNL     1      39.397  12.718  14.517  0.00  0.00    +0.000 Cl
ATOM     17  C   UNL     1      38.193  11.321  12.550  0.00  0.00    +0.000 A 
ATOM     18  C   UNL     1      38.205  10.557  11.385  0.00  0.00    +0.000 A 
ATOM     19 CL   UNL     1      36.720   9.964  10.747  0.00  0.00    +0.000 Cl
ATOM     20  C   UNL     1      39.402  10.258  10.732  0.00  0.00    +0.000 A 
ENDBRANCH  10  13
ENDBRANCH   8  11
ENDBRANCH   1   8
BRANCH   4  21
ATOM     21  C   UNL     1      46.077   4.594  13.514  0.00  0.00    +0.000 C 
BRANCH  21  22
ATOM     22  N   UNL     1      46.723   4.880  14.772  0.00  0.00    +0.000 N 
ATOM     23  C   UNL     1      47.483   3.927  15.403  0.00  0.00    +0.000 C 
ATOM     24  O   UNL     1      47.707   2.832  14.890  0.00  0.00    +0.000 OA
ATOM     25  H   UNL     1      46.374   5.672  15.304  0.00  0.00    +0.000 HD
BRANCH  23  26
ATOM     26  C   UNL     1      48.063   4.295  16.702  0.00  0.00    +0.000 A 
ATOM     27  C   UNL     1      47.764   3.540  17.828  0.00  0.00    +0.000 A 
ATOM     28  S   UNL     1      48.545   4.082  19.244  0.00  0.00    +0.000 S 
ATOM     29  C   UNL     1      49.276   5.374  18.411  0.00  0.00    +0.000 A 
ATOM     30  N   UNL     1      50.077   6.259  19.061  0.00  0.00    +0.000 NA
ATOM     31  C   UNL     1      50.543   7.204  18.315  0.00  0.00    +0.000 A 
ATOM     32  N   UNL     1      50.282   7.342  16.977  0.00  0.00    +0.000 N 
ATOM     33  C   UNL     1      49.500   6.457  16.273  0.00  0.00    +0.000 A 
ATOM     34  O   UNL     1      49.321   6.584  15.066  0.00  0.00    +0.000 OA
ATOM     35  C   UNL     1      48.941   5.381  17.069  0.00  0.00    +0.000 A 
ATOM     36  H   UNL     1      50.687   8.100  16.447  0.00  0.00    +0.000 HD
ENDBRANCH  23  26
ENDBRANCH  21  22
ENDBRANCH   4  21
TORSDOF 6
ENDMDL
MODEL 4
REMARK VINA RESULT:    -7.187      3.134      4.457
REMARK INTER + INTRA:         -10.818
REMARK INTER:                  -9.818
REMARK INTRA:                  -1.000
REMARK UNBOUND:                -1.109
REMARK  Name = 
REMARK  6 active torsions:
REMARK  status: ('A' for Active; 'I' for Inactive)
REMARK    1  A    between atoms: C_2  and  C_26
REMARK    2  A    between atoms: N_3  and  C_4
REMARK    3  A    between atoms: C_4  and  C_5
REMARK    4  A    between atoms: C_8  and  C_9
REMARK    5  A    between atoms: C_9  and  N_10
REMARK    6  A    between atoms: C_11  and  C_13
REMARK                            x       y       z     vdW  Elec       q    Type
REMARK                         _______ _______ _______ _____ _____    ______ ____
ROOT
ATOM      1  C   UNL     1      48.205   8.088  13.348  0.00  0.00    +0.000 A 
ATOM      2  C   UNL     1      48.293   6.838  13.987  0.00  0.00    +0.000 A 
ATOM      3  C   UNL     1      48.665   6.736  15.332  0.00  0.00    +0.000 A 
ATOM      4  C   UNL     1      48.981   7.881  16.073  0.00  0.00    +0.000 A 
ATOM      5  C   UNL     1      48.883   9.131  15.447  0.00  0.00    +0.000 A 
ATOM      6  C   UNL     1      48.509   9.234  14.099  0.00  0.00    +0.000 A 
ATOM      7 CL   UNL     1      48.452  10.816  13.407  0.00  0.00    +0.000 Cl
ENDROOT
BRANCH   1   8
ATOM      8  C   UNL     1      47.791   8.129  11.898  0.00  0.00    +0.000 C 
BRANCH   8  11
ATOM      9  O   UNL     1      45.085   7.658  11.446  0.00  0.00    +0.000 OA
ATOM     10  C   UNL     1      45.884   6.761  11.206  0.00  0.00    +0.000 C 
ATOM     11  N   UNL     1      47.239   6.865  11.450  0.00  0.00    +0.000 N 
ATOM     12  H   UNL     1      47.871   6.228  10.986  0.00  0.00    +0.000 HD
BRANCH  10  13
ATOM     13  C   UNL     1      45.399   5.498  10.585  0.00  0.00    +0.000 A 
ATOM     14  C   UNL     1      44.621   4.632  11.367  0.00  0.00    +0.000 A 
ATOM     15  C   UNL     1      44.165   3.430  10.831  0.00  0.00    +0.000 A 
ATOM     16 CL   UNL     1      43.199   2.378  11.791  0.00  0.00    +0.000 Cl
ATOM     17  C   UNL     1      44.485   3.070   9.525  0.00  0.00    +0.000 A 
ATOM     18  C   UNL     1      45.274   3.925   8.758  0.00  0.00    +0.000 A 
ATOM     19 CL   UNL     1      45.695   3.474   7.151  0.00  0.00    +0.000 Cl
ATOM     20  C   UNL     1      45.737   5.136   9.276  0.00  0.00    +0.000 A 
ENDBRANCH  10  13
ENDBRANCH   8  11
ENDBRANCH   1   8
BRANCH   4  21
ATOM     21  C   UNL     1      49.397   7.768  17.518  0.00  0.00    +0.000 C 
BRANCH  21  22
ATOM     22  N   UNL     1      50.398   6.747  17.704  0.00  0.00    +0.000 N 
ATOM     23  C   UNL     1      50.139   5.643  18.477  0.00  0.00    +0.000 C 
ATOM     24  O   UNL     1      49.032   5.441  18.970  0.00  0.00    +0.000 OA
ATOM     25  H   UNL     1      51.361   6.998  17.500  0.00  0.00    +0.000 HD
BRANCH  23  26
ATOM     26  C   UNL     1      51.237   4.680  18.645  0.00  0.00    +0.000 A 
ATOM     27  C   UNL     1      52.350   5.030  19.397  0.00  0.00    +0.000 A 
ATOM     28  S   UNL     1      53.512   3.788  19.520  0.00  0.00    +0.000 S 
ATOM     29  C   UNL     1      52.589   2.753  18.534  0.00  0.00    +0.000 A 
ATOM     30  N   UNL     1      53.037   1.508  18.219  0.00  0.00    +0.000 NA
ATOM     31  C   UNL     1      52.251   0.840  17.443  0.00  0.00    +0.000 A 
ATOM     32  N   UNL     1      51.056   1.304  16.956  0.00  0.00    +0.000 N 
ATOM     33  C   UNL     1      50.552   2.544  17.270  0.00  0.00    +0.000 A 
ATOM     34  O   UNL     1      49.459   2.912  16.853  0.00  0.00    +0.000 OA
ATOM     35  C   UNL     1      51.404   3.341  18.132  0.00  0.00    +0.000 A 
ATOM     36  H   UNL     1      50.482   0.726  16.360  0.00  0.00    +0.000 HD
ENDBRANCH  23  26
ENDBRANCH  21  22
ENDBRANCH   4  21
TORSDOF 6
ENDMDL
MODEL 5
REMARK VINA RESULT:    -7.171      1.779      2.267
REMARK INTER + INTRA:         -10.796
REMARK INTER:                  -9.602
REMARK INTRA:                  -1.194
REMARK UNBOUND:                -1.109
REMARK  Name = 
REMARK  6 active torsions:
REMARK  status: ('A' for Active; 'I' for Inactive)
REMARK    1  A    between atoms: C_2  and  C_26
REMARK    2  A    between atoms: N_3  and  C_4
REMARK    3  A    between atoms: C_4  and  C_5
REMARK    4  A    between atoms: C_8  and  C_9
REMARK    5  A    between atoms: C_9  and  N_10
REMARK    6  A    between atoms: C_11  and  C_13
REMARK                            x       y       z     vdW  Elec       q    Type
REMARK                         _______ _______ _______ _____ _____    ______ ____
ROOT
ATOM      1  C   UNL     1      45.566   4.761  12.712  0.00  0.00    +0.000 A 
ATOM      2  C   UNL     1      46.428   4.185  13.662  0.00  0.00    +0.000 A 
ATOM      3  C   UNL     1      47.392   4.952  14.325  0.00  0.00    +0.000 A 
ATOM      4  C   UNL     1      47.535   6.315  14.043  0.00  0.00    +0.000 A 
ATOM      5  C   UNL     1      46.671   6.900  13.107  0.00  0.00    +0.000 A 
ATOM      6  C   UNL     1      45.704   6.130  12.443  0.00  0.00    +0.000 A 
ATOM      7 CL   UNL     1      44.709   6.934  11.280  0.00  0.00    +0.000 Cl
ENDROOT
BRANCH   1   8
ATOM      8  C   UNL     1      44.544   3.880  12.038  0.00  0.00    +0.000 C 
BRANCH   8  11
ATOM      9  O   UNL     1      43.934   4.295   9.353  0.00  0.00    +0.000 OA
ATOM     10  C   UNL     1      44.778   3.454   9.639  0.00  0.00    +0.000 C 
ATOM     11  N   UNL     1      45.112   3.125  10.938  0.00  0.00    +0.000 N 
ATOM     12  H   UNL     1      45.987   2.648  11.113  0.00  0.00    +0.000 HD
BRANCH  10  13
ATOM     13  C   UNL     1      45.521   2.764   8.549  0.00  0.00    +0.000 A 
ATOM     14  C   UNL     1      45.806   1.400   8.703  0.00  0.00    +0.000 A 
ATOM     15  C   UNL     1      46.517   0.722   7.715  0.00  0.00    +0.000 A 
ATOM     16 CL   UNL     1      46.852  -0.956   7.904  0.00  0.00    +0.000 Cl
ATOM     17  C   UNL     1      46.960   1.388   6.577  0.00  0.00    +0.000 A 
ATOM     18  C   UNL     1      46.691   2.748   6.438  0.00  0.00    +0.000 A 
ATOM     19 CL   UNL     1      47.260   3.584   5.044  0.00  0.00    +0.000 Cl
ATOM     20  C   UNL     1      45.976   3.444   7.414  0.00  0.00    +0.000 A 
ENDBRANCH  10  13
ENDBRANCH   8  11
ENDBRANCH   1   8
BRANCH   4  21
ATOM     21  C   UNL     1      48.585   7.137  14.747  0.00  0.00    +0.000 C 
BRANCH  21  22
ATOM     22  N   UNL     1      49.129   6.441  15.887  0.00  0.00    +0.000 N 
ATOM     23  C   UNL     1      49.106   7.011  17.134  0.00  0.00    +0.000 C 
ATOM     24  O   UNL     1      48.555   8.090  17.345  0.00  0.00    +0.000 OA
ATOM     25  H   UNL     1      49.771   5.675  15.700  0.00  0.00    +0.000 HD
BRANCH  23  26
ATOM     26  C   UNL     1      49.725   6.244  18.225  0.00  0.00    +0.000 A 
ATOM     27  C   UNL     1      48.996   5.971  19.375  0.00  0.00    +0.000 A 
ATOM     28  S   UNL     1      49.850   5.045  20.523  0.00  0.00    +0.000 S 
ATOM     29  C   UNL     1      51.241   5.013  19.544  0.00  0.00    +0.000 A 
ATOM     30  N   UNL     1      52.373   4.383  19.959  0.00  0.00    +0.000 NA
ATOM     31  C   UNL     1      53.360   4.460  19.131  0.00  0.00    +0.000 A 
ATOM     32  N   UNL     1      53.316   5.106  17.922  0.00  0.00    +0.000 N 
ATOM     33  C   UNL     1      52.187   5.732  17.450  0.00  0.00    +0.000 A 
ATOM     34  O   UNL     1      52.167   6.264  16.345  0.00  0.00    +0.000 OA
ATOM     35  C   UNL     1      51.050   5.685  18.350  0.00  0.00    +0.000 A 
ATOM     36  H   UNL     1      54.122   5.120  17.315  0.00  0.00    +0.000 HD
ENDBRANCH  23  26
ENDBRANCH  21  22
ENDBRANCH   4  21
TORSDOF 6
ENDMDL
MODEL 6
REMARK VINA RESULT:    -7.159      2.509      2.808
REMARK INTER + INTRA:         -10.780
REMARK INTER:                  -9.719
REMARK INTRA:                  -1.060
REMARK UNBOUND:                -1.109
REMARK  Name = 
REMARK  6 active torsions:
REMARK  status: ('A' for Active; 'I' for Inactive)
REMARK    1  A    between atoms: C_2  and  C_26
REMARK    2  A    between atoms: N_3  and  C_4
REMARK    3  A    between atoms: C_4  and  C_5
REMARK    4  A    between atoms: C_8  and  C_9
REMARK    5  A    between atoms: C_9  and  N_10
REMARK    6  A    between atoms: C_11  and  C_13
REMARK                            x       y       z     vdW  Elec       q    Type
REMARK                         _______ _______ _______ _____ _____    ______ ____
ROOT
ATOM      1  C   UNL     1      45.473   6.455  12.058  0.00  0.00    +0.000 A 
ATOM      2  C   UNL     1      45.409   7.856  11.954  0.00  0.00    +0.000 A 
ATOM      3  C   UNL     1      46.263   8.677  12.699  0.00  0.00    +0.000 A 
ATOM      4  C   UNL     1      47.191   8.121  13.586  0.00  0.00    +0.000 A 
ATOM      5  C   UNL     1      47.269   6.725  13.686  0.00  0.00    +0.000 A 
ATOM      6  C   UNL     1      46.415   5.902  12.938  0.00  0.00    +0.000 A 
ATOM      7 CL   UNL     1      46.563   4.194  13.156  0.00  0.00    +0.000 Cl
ENDROOT
BRANCH   1   8
ATOM      8  C   UNL     1      44.530   5.626  11.221  0.00  0.00    +0.000 C 
BRANCH   8  11
ATOM      9  O   UNL     1      44.266   2.900  10.717  0.00  0.00    +0.000 OA
ATOM     10  C   UNL     1      44.969   3.569   9.970  0.00  0.00    +0.000 C 
ATOM     11  N   UNL     1      45.219   4.914  10.163  0.00  0.00    +0.000 N 
ATOM     12  H   UNL     1      45.561   5.464   9.387  0.00  0.00    +0.000 HD
BRANCH  10  13
ATOM     13  C   UNL     1      45.570   2.931   8.767  0.00  0.00    +0.000 A 
ATOM     14  C   UNL     1      45.799   1.548   8.796  0.00  0.00    +0.000 A 
ATOM     15  C   UNL     1      46.379   0.916   7.698  0.00  0.00    +0.000 A 
ATOM     16 CL   UNL     1      46.646  -0.785   7.734  0.00  0.00    +0.000 Cl
ATOM     17  C   UNL     1      46.745   1.646   6.571  0.00  0.00    +0.000 A 
ATOM     18  C   UNL     1      46.532   3.022   6.555  0.00  0.00    +0.000 A 
ATOM     19 CL   UNL     1      47.007   3.935   5.174  0.00  0.00    +0.000 Cl
ATOM     20  C   UNL     1      45.949   3.674   7.643  0.00  0.00    +0.000 A 
ENDBRANCH  10  13
ENDBRANCH   8  11
ENDBRANCH   1   8
BRANCH   4  21
ATOM     21  C   UNL     1      48.099   9.009  14.400  0.00  0.00    +0.000 C 
BRANCH  21  22
ATOM     22  N   UNL     1      47.701   9.047  15.786  0.00  0.00    +0.000 N 
ATOM     23  C   UNL     1      48.241   9.970  16.646  0.00  0.00    +0.000 C 
ATOM     24  O   UNL     1      49.015  10.842  16.259  0.00  0.00    +0.000 OA
ATOM     25  H   UNL     1      47.252   8.217  16.163  0.00  0.00    +0.000 HD
BRANCH  23  26
ATOM     26  C   UNL     1      47.809   9.900  18.049  0.00  0.00    +0.000 A 
ATOM     27  C   UNL     1      47.303  11.035  18.670  0.00  0.00    +0.000 A 
ATOM     28  S   UNL     1      46.817  10.773  20.283  0.00  0.00    +0.000 S 
ATOM     29  C   UNL     1      47.306   9.144  20.224  0.00  0.00    +0.000 A 
ATOM     30  N   UNL     1      47.182   8.339  21.312  0.00  0.00    +0.000 NA
ATOM     31  C   UNL     1      47.616   7.136  21.137  0.00  0.00    +0.000 A 
ATOM     32  N   UNL     1      48.161   6.665  19.970  0.00  0.00    +0.000 N 
ATOM     33  C   UNL     1      48.281   7.435  18.838  0.00  0.00    +0.000 A 
ATOM     34  O   UNL     1      48.733   6.971  17.796  0.00  0.00    +0.000 OA
ATOM     35  C   UNL     1      47.817   8.802  18.985  0.00  0.00    +0.000 A 
ATOM     36  H   UNL     1      48.473   5.708  19.895  0.00  0.00    +0.000 HD
ENDBRANCH  23  26
ENDBRANCH  21  22
ENDBRANCH   4  21
TORSDOF 6
ENDMDL
MODEL 7
REMARK VINA RESULT:    -6.988      4.798      7.751
REMARK INTER + INTRA:         -10.549
REMARK INTER:                  -9.744
REMARK INTRA:                  -0.805
REMARK UNBOUND:                -1.109
REMARK  Name = 
REMARK  6 active torsions:
REMARK  status: ('A' for Active; 'I' for Inactive)
REMARK    1  A    between atoms: C_2  and  C_26
REMARK    2  A    between atoms: N_3  and  C_4
REMARK    3  A    between atoms: C_4  and  C_5
REMARK    4  A    between atoms: C_8  and  C_9
REMARK    5  A    between atoms: C_9  and  N_10
REMARK    6  A    between atoms: C_11  and  C_13
REMARK                            x       y       z     vdW  Elec       q    Type
REMARK                         _______ _______ _______ _____ _____    ______ ____
ROOT
ATOM      1  C   UNL     1      43.816   8.290  11.127  0.00  0.00    +0.000 A 
ATOM      2  C   UNL     1      43.264   6.998  11.063  0.00  0.00    +0.000 A 
ATOM      3  C   UNL     1      43.857   5.923  11.732  0.00  0.00    +0.000 A 
ATOM      4  C   UNL     1      45.034   6.103  12.468  0.00  0.00    +0.000 A 
ATOM      5  C   UNL     1      45.583   7.390  12.548  0.00  0.00    +0.000 A 
ATOM      6  C   UNL     1      44.987   8.469  11.879  0.00  0.00    +0.000 A 
ATOM      7 CL   UNL     1      45.759  10.010  12.008  0.00  0.00    +0.000 Cl
ENDROOT
BRANCH   1   8
ATOM      8  C   UNL     1      43.123   9.409  10.389  0.00  0.00    +0.000 C 
BRANCH   8  11
ATOM      9  O   UNL     1      42.503  11.682  11.873  0.00  0.00    +0.000 OA
ATOM     10  C   UNL     1      41.607  10.888  11.616  0.00  0.00    +0.000 C 
ATOM     11  N   UNL     1      41.814   9.700  10.942  0.00  0.00    +0.000 N 
ATOM     12  H   UNL     1      41.023   9.232  10.519  0.00  0.00    +0.000 HD
BRANCH  10  13
ATOM     13  C   UNL     1      40.208  11.212  12.009  0.00  0.00    +0.000 A 
ATOM     14  C   UNL     1      39.996  11.830  13.250  0.00  0.00    +0.000 A 
ATOM     15  C   UNL     1      38.701  12.132  13.664  0.00  0.00    +0.000 A 
ATOM     16 CL   UNL     1      38.448  12.903  15.182  0.00  0.00    +0.000 Cl
ATOM     17  C   UNL     1      37.608  11.814  12.864  0.00  0.00    +0.000 A 
ATOM     18  C   UNL     1      37.823  11.182  11.641  0.00  0.00    +0.000 A 
ATOM     19 CL   UNL     1      36.473  10.763  10.656  0.00  0.00    +0.000 Cl
ATOM     20  C   UNL     1      39.113  10.876  11.205  0.00  0.00    +0.000 A 
ENDBRANCH  10  13
ENDBRANCH   8  11
ENDBRANCH   1   8
BRANCH   4  21
ATOM     21  C   UNL     1      45.681   4.939  13.175  0.00  0.00    +0.000 C 
BRANCH  21  22
ATOM     22  N   UNL     1      46.512   5.377  14.269  0.00  0.00    +0.000 N 
ATOM     23  C   UNL     1      47.344   4.498  14.915  0.00  0.00    +0.000 C 
ATOM     24  O   UNL     1      47.474   3.334  14.541  0.00  0.00    +0.000 OA
ATOM     25  H   UNL     1      46.258   6.249  14.725  0.00  0.00    +0.000 HD
BRANCH  23  26
ATOM     26  C   UNL     1      48.118   5.027  16.047  0.00  0.00    +0.000 A 
ATOM     27  C   UNL     1      48.885   6.173  15.881  0.00  0.00    +0.000 A 
ATOM     28  S   UNL     1      49.690   6.670  17.299  0.00  0.00    +0.000 S 
ATOM     29  C   UNL     1      49.077   5.346  18.176  0.00  0.00    +0.000 A 
ATOM     30  N   UNL     1      49.407   5.162  19.482  0.00  0.00    +0.000 NA
ATOM     31  C   UNL     1      48.894   4.104  20.017  0.00  0.00    +0.000 A 
ATOM     32  N   UNL     1      48.079   3.216  19.364  0.00  0.00    +0.000 N 
ATOM     33  C   UNL     1      47.698   3.377  18.054  0.00  0.00    +0.000 A 
ATOM     34  O   UNL     1      46.931   2.588  17.510  0.00  0.00    +0.000 OA
ATOM     35  C   UNL     1      48.257   4.546  17.401  0.00  0.00    +0.000 A 
ATOM     36  H   UNL     1      47.702   2.413  19.844  0.00  0.00    +0.000 HD
ENDBRANCH  23  26
ENDBRANCH  21  22
ENDBRANCH   4  21
TORSDOF 6
ENDMDL
MODEL 8
REMARK VINA RESULT:    -6.594      4.942      7.517
REMARK INTER + INTRA:         -10.015
REMARK INTER:                  -8.893
REMARK INTRA:                  -1.123
REMARK UNBOUND:                -1.109
REMARK  Name = 
REMARK  6 active torsions:
REMARK  status: ('A' for Active; 'I' for Inactive)
REMARK    1  A    between atoms: C_2  and  C_26
REMARK    2  A    between atoms: N_3  and  C_4
REMARK    3  A    between atoms: C_4  and  C_5
REMARK    4  A    between atoms: C_8  and  C_9
REMARK    5  A    between atoms: C_9  and  N_10
REMARK    6  A    between atoms: C_11  and  C_13
REMARK                            x       y       z     vdW  Elec       q    Type
REMARK                         _______ _______ _______ _____ _____    ______ ____
ROOT
ATOM      1  C   UNL     1      45.410  10.340  11.757  0.00  0.00    +0.000 A 
ATOM      2  C   UNL     1      44.626   9.193  11.972  0.00  0.00    +0.000 A 
ATOM      3  C   UNL     1      45.214   7.957  12.263  0.00  0.00    +0.000 A 
ATOM      4  C   UNL     1      46.606   7.828  12.327  0.00  0.00    +0.000 A 
ATOM      5  C   UNL     1      47.394   8.969  12.128  0.00  0.00    +0.000 A 
ATOM      6  C   UNL     1      46.805  10.209  11.837  0.00  0.00    +0.000 A 
ATOM      7 CL   UNL     1      47.862  11.550  11.572  0.00  0.00    +0.000 Cl
ENDROOT
BRANCH   1   8
ATOM      8  C   UNL     1      44.714  11.644  11.455  0.00  0.00    +0.000 C 
BRANCH   8  11
ATOM      9  O   UNL     1      42.568  11.699   9.682  0.00  0.00    +0.000 OA
ATOM     10  C   UNL     1      42.335  11.599  10.881  0.00  0.00    +0.000 C 
ATOM     11  N   UNL     1      43.319  11.623  11.850  0.00  0.00    +0.000 N 
ATOM     12  H   UNL     1      43.108  11.263  12.771  0.00  0.00    +0.000 HD
BRANCH  10  13
ATOM     13  C   UNL     1      40.933  11.404  11.339  0.00  0.00    +0.000 A 
ATOM     14  C   UNL     1      40.568  11.918  12.591  0.00  0.00    +0.000 A 
ATOM     15  C   UNL     1      39.270  11.739  13.066  0.00  0.00    +0.000 A 
ATOM     16 CL   UNL     1      38.825  12.385  14.598  0.00  0.00    +0.000 Cl
ATOM     17  C   UNL     1      38.330  11.042  12.313  0.00  0.00    +0.000 A 
ATOM     18  C   UNL     1      38.703  10.516  11.078  0.00  0.00    +0.000 A 
ATOM     19 CL   UNL     1      37.552   9.630  10.154  0.00  0.00    +0.000 Cl
ATOM     20  C   UNL     1      39.997  10.689  10.583  0.00  0.00    +0.000 A 
ENDBRANCH  10  13
ENDBRANCH   8  11
ENDBRANCH   1   8
BRANCH   4  21
ATOM     21  C   UNL     1      47.238   6.491  12.625  0.00  0.00    +0.000 C 
BRANCH  21  22
ATOM     22  N   UNL     1      47.416   6.292  14.042  0.00  0.00    +0.000 N 
ATOM     23  C   UNL     1      48.642   6.485  14.629  0.00  0.00    +0.000 C 
ATOM     24  O   UNL     1      49.606   6.907  13.995  0.00  0.00    +0.000 OA
ATOM     25  H   UNL     1      46.713   5.741  14.525  0.00  0.00    +0.000 HD
BRANCH  23  26
ATOM     26  C   UNL     1      48.736   6.212  16.070  0.00  0.00    +0.000 A 
ATOM     27  C   UNL     1      49.218   7.194  16.926  0.00  0.00    +0.000 A 
ATOM     28  S   UNL     1      49.229   6.727  18.566  0.00  0.00    +0.000 S 
ATOM     29  C   UNL     1      48.631   5.180  18.187  0.00  0.00    +0.000 A 
ATOM     30  N   UNL     1      48.426   4.253  19.160  0.00  0.00    +0.000 NA
ATOM     31  C   UNL     1      47.997   3.114  18.730  0.00  0.00    +0.000 A 
ATOM     32  N   UNL     1      47.751   2.819  17.413  0.00  0.00    +0.000 N 
ATOM     33  C   UNL     1      47.917   3.733  16.400  0.00  0.00    +0.000 A 
ATOM     34  O   UNL     1      47.646   3.452  15.237  0.00  0.00    +0.000 OA
ATOM     35  C   UNL     1      48.411   5.028  16.829  0.00  0.00    +0.000 A 
ATOM     36  H   UNL     1      47.405   1.911  17.144  0.00  0.00    +0.000 HD
ENDBRANCH  23  26
ENDBRANCH  21  22
ENDBRANCH   4  21
TORSDOF 6
ENDMDL
MODEL 9
REMARK VINA RESULT:    -6.460      4.607     10.399
REMARK INTER + INTRA:          -9.835
REMARK INTER:                  -8.737
REMARK INTRA:                  -1.098
REMARK UNBOUND:                -1.109
REMARK  Name = 
REMARK  6 active torsions:
REMARK  status: ('A' for Active; 'I' for Inactive)
REMARK    1  A    between atoms: C_2  and  C_26
REMARK    2  A    between atoms: N_3  and  C_4
REMARK    3  A    between atoms: C_4  and  C_5
REMARK    4  A    between atoms: C_8  and  C_9
REMARK    5  A    between atoms: C_9  and  N_10
REMARK    6  A    between atoms: C_11  and  C_13
REMARK                            x       y       z     vdW  Elec       q    Type
REMARK                         _______ _______ _______ _____ _____    ______ ____
ROOT
ATOM      1  C   UNL     1      50.114   7.805  14.958  0.00  0.00    +0.000 A 
ATOM      2  C   UNL     1      48.973   6.983  14.984  0.00  0.00    +0.000 A 
ATOM      3  C   UNL     1      48.030   7.020  13.952  0.00  0.00    +0.000 A 
ATOM      4  C   UNL     1      48.188   7.896  12.873  0.00  0.00    +0.000 A 
ATOM      5  C   UNL     1      49.330   8.709  12.833  0.00  0.00    +0.000 A 
ATOM      6  C   UNL     1      50.277   8.671  13.867  0.00  0.00    +0.000 A 
ATOM      7 CL   UNL     1      51.631   9.737  13.745  0.00  0.00    +0.000 Cl
ENDROOT
BRANCH   1   8
ATOM      8  C   UNL     1      51.098   7.711  16.099  0.00  0.00    +0.000 C 
BRANCH   8  11
ATOM      9  O   UNL     1      49.968   9.593  17.812  0.00  0.00    +0.000 OA
ATOM     10  C   UNL     1      49.873   8.406  18.100  0.00  0.00    +0.000 C 
ATOM     11  N   UNL     1      50.448   7.395  17.356  0.00  0.00    +0.000 N 
ATOM     12  H   UNL     1      50.112   6.448  17.474  0.00  0.00    +0.000 HD
BRANCH  10  13
ATOM     13  C   UNL     1      49.073   8.006  19.290  0.00  0.00    +0.000 A 
ATOM     14  C   UNL     1      49.138   6.670  19.712  0.00  0.00    +0.000 A 
ATOM     15  C   UNL     1      48.388   6.250  20.809  0.00  0.00    +0.000 A 
ATOM     16 CL   UNL     1      48.482   4.612  21.330  0.00  0.00    +0.000 Cl
ATOM     17  C   UNL     1      47.562   7.141  21.487  0.00  0.00    +0.000 A 
ATOM     18  C   UNL     1      47.487   8.463  21.052  0.00  0.00    +0.000 A 
ATOM     19 CL   UNL     1      46.448   9.565  21.870  0.00  0.00    +0.000 Cl
ATOM     20  C   UNL     1      48.234   8.905  19.958  0.00  0.00    +0.000 A 
ENDBRANCH  10  13
ENDBRANCH   8  11
ENDBRANCH   1   8
BRANCH   4  21
ATOM     21  C   UNL     1      47.162   7.946  11.769  0.00  0.00    +0.000 C 
BRANCH  21  22
ATOM     22  N   UNL     1      46.608   6.643  11.500  0.00  0.00    +0.000 N 
ATOM     23  C   UNL     1      45.251   6.462  11.407  0.00  0.00    +0.000 C 
ATOM     24  O   UNL     1      44.465   7.405  11.469  0.00  0.00    +0.000 OA
ATOM     25  H   UNL     1      47.208   5.840  11.668  0.00  0.00    +0.000 HD
BRANCH  23  26
ATOM     26  C   UNL     1      44.780   5.089  11.176  0.00  0.00    +0.000 A 
ATOM     27  C   UNL     1      44.031   4.445  12.152  0.00  0.00    +0.000 A 
ATOM     28  S   UNL     1      43.537   2.874  11.711  0.00  0.00    +0.000 S 
ATOM     29  C   UNL     1      44.343   2.982  10.216  0.00  0.00    +0.000 A 
ATOM     30  N   UNL     1      44.334   1.940   9.342  0.00  0.00    +0.000 NA
ATOM     31  C   UNL     1      45.007   2.146   8.260  0.00  0.00    +0.000 A 
ATOM     32  N   UNL     1      45.685   3.302   7.971  0.00  0.00    +0.000 N 
ATOM     33  C   UNL     1      45.699   4.390   8.811  0.00  0.00    +0.000 A 
ATOM     34  O   UNL     1      46.279   5.426   8.504  0.00  0.00    +0.000 OA
ATOM     35  C   UNL     1      44.966   4.205  10.050  0.00  0.00    +0.000 A 
ATOM     36  H   UNL     1      46.184   3.404   7.100  0.00  0.00    +0.000 HD
ENDBRANCH  23  26
ENDBRANCH  21  22
ENDBRANCH   4  21
TORSDOF 6
ENDMDL
