MODEL 1
REMARK VINA RESULT:    -7.509      0.000      0.000
REMARK INTER + INTRA:          -9.206
REMARK INTER:                  -8.826
REMARK INTRA:                  -0.381
REMARK UNBOUND:                -0.381
REMARK  Name = 
REMARK  3 active torsions:
REMARK  status: ('A' for Active; 'I' for Inactive)
REMARK    1  A    between atoms: C_5  and  N_6
REMARK    2  A    between atoms: N_6  and  C_7
REMARK    3  A    between atoms: C_7  and  C_8
REMARK                            x       y       z     vdW  Elec       q    Type
REMARK                         _______ _______ _______ _____ _____    ______ ____
ROOT
ATOM      1  C   UNL     1      44.892   4.412  11.217  0.00  0.00    +0.000 A 
ATOM      2  C   UNL     1      45.071   3.482  12.235  0.00  0.00    +0.000 A 
ATOM      3  C   UNL     1      46.022   3.756  13.208  0.00  0.00    +0.000 A 
ATOM      4  N   UNL     1      46.791   4.869  13.233  0.00  0.00    +0.000 NA
ATOM      5  C   UNL     1      46.589   5.802  12.281  0.00  0.00    +0.000 A 
ATOM      6  N   UNL     1      47.380   6.943  12.241  0.00  0.00    +0.000 N 
ATOM      7  C   UNL     1      48.747   6.875  12.751  0.00  0.00    +0.000 C 
ATOM      8  C   UNL     1      48.912   7.607  14.080  0.00  0.00    +0.000 C 
ATOM      9  C   UNL     1      48.316   9.010  14.020  0.00  0.00    +0.000 C 
ATOM     10  C   UNL     1      46.855   8.939  13.591  0.00  0.00    +0.000 C 
ATOM     11  C   UNL     1      46.710   8.241  12.239  0.00  0.00    +0.000 C 
ATOM     12  C   UNL     1      45.638   5.597  11.275  0.00  0.00    +0.000 A 
ENDROOT
BRANCH   1  13
ATOM     13  C   UNL     1      43.977   4.147  10.048  0.00  0.00    +0.000 C 
BRANCH  13  14
ATOM     14  N   UNL     1      44.664   4.374   8.787  0.00  0.00    +0.000 N 
ATOM     15  H   UNL     1      44.073   4.778   8.065  0.00  0.00    +0.000 HD
BRANCH  14  20
ATOM     16  C   UNL     1      47.281   2.627   6.772  0.00  0.00    +0.000 A 
ATOM     17  C   UNL     1      47.099   1.350   7.271  0.00  0.00    +0.000 A 
ATOM     18  N   UNL     1      46.193   1.048   8.221  0.00  0.00    +0.000 NA
ATOM     19  C   UNL     1      45.443   2.080   8.687  0.00  0.00    +0.000 A 
ATOM     20  C   UNL     1      45.553   3.417   8.287  0.00  0.00    +0.000 A 
ATOM     21  C   UNL     1      46.491   3.661   7.280  0.00  0.00    +0.000 A 
ENDBRANCH  14  20
ENDBRANCH  13  14
ENDBRANCH   1  13
TORSDOF 3
ENDMDL
MODEL 2
REMARK VINA RESULT:    -6.745      2.711      3.983
REMARK INTER + INTRA:          -8.309
REMARK INTER:                  -7.950
REMARK INTRA:                  -0.359
REMARK UNBOUND:                -0.381
REMARK  Name = 
REMARK  3 active torsions:
REMARK  status: ('A' for Active; 'I' for Inactive)
REMARK    1  A    between atoms: C_5  and  N_6
REMARK    2  A    between atoms: N_6  and  C_7
REMARK    3  A    between atoms: C_7  and  C_8
REMARK                            x       y       z     vdW  Elec       q    Type
REMARK                         _______ _______ _______ _____ _____    ______ ____
ROOT
ATOM      1  C   UNL     1      46.048   5.175  12.997  0.00  0.00    +0.000 A 
ATOM      2  C   UNL     1      46.981   6.022  12.411  0.00  0.00    +0.000 A 
ATOM      3  C   UNL     1      48.109   6.359  13.147  0.00  0.00    +0.000 A 
ATOM      4  N   UNL     1      48.362   5.919  14.402  0.00  0.00    +0.000 NA
ATOM      5  C   UNL     1      47.490   5.056  14.960  0.00  0.00    +0.000 A 
ATOM      6  N   UNL     1      47.685   4.607  16.260  0.00  0.00    +0.000 N 
ATOM      7  C   UNL     1      48.385   5.468  17.209  0.00  0.00    +0.000 C 
ATOM      8  C   UNL     1      49.790   4.967  17.527  0.00  0.00    +0.000 C 
ATOM      9  C   UNL     1      49.784   3.485  17.886  0.00  0.00    +0.000 C 
ATOM     10  C   UNL     1      49.136   2.678  16.766  0.00  0.00    +0.000 C 
ATOM     11  C   UNL     1      47.714   3.164  16.489  0.00  0.00    +0.000 C 
ATOM     12  C   UNL     1      46.337   4.663  14.270  0.00  0.00    +0.000 A 
ENDROOT
BRANCH   1  13
ATOM     13  C   UNL     1      44.734   4.855  12.330  0.00  0.00    +0.000 C 
BRANCH  13  14
ATOM     14  N   UNL     1      44.721   5.319  10.954  0.00  0.00    +0.000 N 
ATOM     15  H   UNL     1      43.941   5.934  10.735  0.00  0.00    +0.000 HD
BRANCH  14  20
ATOM     16  C   UNL     1      45.214   2.240   8.897  0.00  0.00    +0.000 A 
ATOM     17  C   UNL     1      45.883   2.814   7.831  0.00  0.00    +0.000 A 
ATOM     18  N   UNL     1      46.158   4.131   7.754  0.00  0.00    +0.000 NA
ATOM     19  C   UNL     1      45.738   4.896   8.794  0.00  0.00    +0.000 A 
ATOM     20  C   UNL     1      45.027   4.441   9.911  0.00  0.00    +0.000 A 
ATOM     21  C   UNL     1      44.796   3.062   9.945  0.00  0.00    +0.000 A 
ENDBRANCH  14  20
ENDBRANCH  13  14
ENDBRANCH   1  13
TORSDOF 3
ENDMDL
MODEL 3
REMARK VINA RESULT:    -6.596      2.445      3.837
REMARK INTER + INTRA:          -8.133
REMARK INTER:                  -7.714
REMARK INTRA:                  -0.418
REMARK UNBOUND:                -0.381
REMARK  Name = 
REMARK  3 active torsions:
REMARK  status: ('A' for Active; 'I' for Inactive)
REMARK    1  A    between atoms: C_5  and  N_6
REMARK    2  A    between atoms: N_6  and  C_7
REMARK    3  A    between atoms: C_7  and  C_8
REMARK                            x       y       z     vdW  Elec       q    Type
REMARK                         _______ _______ _______ _____ _____    ______ ____
ROOT
ATOM      1  C   UNL     1      46.487   6.347  12.436  0.00  0.00    +0.000 A 
ATOM      2  C   UNL     1      47.674   6.865  11.934  0.00  0.00    +0.000 A 
ATOM      3  C   UNL     1      48.802   6.811  12.742  0.00  0.00    +0.000 A 
ATOM      4  N   UNL     1      48.824   6.288  13.990  0.00  0.00    +0.000 NA
ATOM      5  C   UNL     1      47.690   5.735  14.467  0.00  0.00    +0.000 A 
ATOM      6  N   UNL     1      47.651   5.221  15.757  0.00  0.00    +0.000 N 
ATOM      7  C   UNL     1      48.526   5.796  16.775  0.00  0.00    +0.000 C 
ATOM      8  C   UNL     1      49.679   4.868  17.147  0.00  0.00    +0.000 C 
ATOM      9  C   UNL     1      49.182   3.458  17.448  0.00  0.00    +0.000 C 
ATOM     10  C   UNL     1      48.384   2.922  16.264  0.00  0.00    +0.000 C 
ATOM     11  C   UNL     1      47.209   3.840  15.930  0.00  0.00    +0.000 C 
ATOM     12  C   UNL     1      46.519   5.743  13.702  0.00  0.00    +0.000 A 
ENDROOT
BRANCH   1  13
ATOM     13  C   UNL     1      45.183   6.473  11.688  0.00  0.00    +0.000 C 
BRANCH  13  14
ATOM     14  N   UNL     1      45.355   6.143  10.284  0.00  0.00    +0.000 N 
ATOM     15  H   UNL     1      44.963   6.835   9.649  0.00  0.00    +0.000 HD
BRANCH  14  20
ATOM     16  C   UNL     1      45.326   3.034   8.212  0.00  0.00    +0.000 A 
ATOM     17  C   UNL     1      44.518   2.259   9.024  0.00  0.00    +0.000 A 
ATOM     18  N   UNL     1      44.010   2.694  10.193  0.00  0.00    +0.000 NA
ATOM     19  C   UNL     1      44.334   3.962  10.557  0.00  0.00    +0.000 A 
ATOM     20  C   UNL     1      45.164   4.832   9.840  0.00  0.00    +0.000 A 
ATOM     21  C   UNL     1      45.638   4.332   8.623  0.00  0.00    +0.000 A 
ENDBRANCH  14  20
ENDBRANCH  13  14
ENDBRANCH   1  13
TORSDOF 3
ENDMDL
MODEL 4
REMARK VINA RESULT:    -6.437      1.220      2.196
REMARK INTER + INTRA:          -7.946
REMARK INTER:                  -7.562
REMARK INTRA:                  -0.384
REMARK UNBOUND:                -0.381
REMARK  Name = 
REMARK  3 active torsions:
REMARK  status: ('A' for Active; 'I' for Inactive)
REMARK    1  A    between atoms: C_5  and  N_6
REMARK    2  A    between atoms: N_6  and  C_7
REMARK    3  A    between atoms: C_7  and  C_8
REMARK                            x       y       z     vdW  Elec       q    Type
REMARK                         _______ _______ _______ _____ _____    ______ ____
ROOT
ATOM      1  C   UNL     1      44.763   5.975  11.189  0.00  0.00    +0.000 A 
ATOM      2  C   UNL     1      44.028   7.144  11.030  0.00  0.00    +0.000 A 
ATOM      3  C   UNL     1      44.552   8.319  11.552  0.00  0.00    +0.000 A 
ATOM      4  N   UNL     1      45.731   8.404  12.210  0.00  0.00    +0.000 NA
ATOM      5  C   UNL     1      46.477   7.286  12.325  0.00  0.00    +0.000 A 
ATOM      6  N   UNL     1      47.676   7.313  13.025  0.00  0.00    +0.000 N 
ATOM      7  C   UNL     1      47.836   8.269  14.117  0.00  0.00    +0.000 C 
ATOM      8  C   UNL     1      48.780   9.413  13.759  0.00  0.00    +0.000 C 
ATOM      9  C   UNL     1      50.084   8.892  13.163  0.00  0.00    +0.000 C 
ATOM     10  C   UNL     1      49.790   8.003  11.959  0.00  0.00    +0.000 C 
ATOM     11  C   UNL     1      48.878   6.839  12.343  0.00  0.00    +0.000 C 
ATOM     12  C   UNL     1      46.016   6.069  11.811  0.00  0.00    +0.000 A 
ENDROOT
BRANCH   1  13
ATOM     13  C   UNL     1      44.221   4.631  10.771  0.00  0.00    +0.000 C 
BRANCH  13  14
ATOM     14  N   UNL     1      44.271   4.476   9.327  0.00  0.00    +0.000 N 
ATOM     15  H   UNL     1      43.356   4.435   8.886  0.00  0.00    +0.000 HD
BRANCH  14  20
ATOM     16  C   UNL     1      46.919   3.002   7.142  0.00  0.00    +0.000 A 
ATOM     17  C   UNL     1      46.812   1.686   7.556  0.00  0.00    +0.000 A 
ATOM     18  N   UNL     1      45.945   1.277   8.502  0.00  0.00    +0.000 NA
ATOM     19  C   UNL     1      45.157   2.236   9.054  0.00  0.00    +0.000 A 
ATOM     20  C   UNL     1      45.192   3.601   8.744  0.00  0.00    +0.000 A 
ATOM     21  C   UNL     1      46.093   3.958   7.736  0.00  0.00    +0.000 A 
ENDBRANCH  14  20
ENDBRANCH  13  14
ENDBRANCH   1  13
TORSDOF 3
ENDMDL
MODEL 5
REMARK VINA RESULT:    -6.290      1.453      2.076
REMARK INTER + INTRA:          -7.773
REMARK INTER:                  -7.299
REMARK INTRA:                  -0.474
REMARK UNBOUND:                -0.381
REMARK  Name = 
REMARK  3 active torsions:
REMARK  status: ('A' for Active; 'I' for Inactive)
REMARK    1  A    between atoms: C_5  and  N_6
REMARK    2  A    between atoms: N_6  and  C_7
REMARK    3  A    between atoms: C_7  and  C_8
REMARK                            x       y       z     vdW  Elec       q    Type
REMARK                         _______ _______ _______ _____ _____    ______ ____
ROOT
ATOM      1  C   UNL     1      45.400   5.427  12.597  0.00  0.00    +0.000 A 
ATOM      2  C   UNL     1      45.723   4.257  13.275  0.00  0.00    +0.000 A 
ATOM      3  C   UNL     1      46.885   4.242  14.033  0.00  0.00    +0.000 A 
ATOM      4  N   UNL     1      47.730   5.292  14.157  0.00  0.00    +0.000 NA
ATOM      5  C   UNL     1      47.400   6.448  13.547  0.00  0.00    +0.000 A 
ATOM      6  N   UNL     1      48.254   7.542  13.612  0.00  0.00    +0.000 N 
ATOM      7  C   UNL     1      49.689   7.312  13.751  0.00  0.00    +0.000 C 
ATOM      8  C   UNL     1      50.205   7.661  15.144  0.00  0.00    +0.000 C 
ATOM      9  C   UNL     1      49.729   9.042  15.583  0.00  0.00    +0.000 C 
ATOM     10  C   UNL     1      48.208   9.118  15.508  0.00  0.00    +0.000 C 
ATOM     11  C   UNL     1      47.709   8.808  14.097  0.00  0.00    +0.000 C 
ATOM     12  C   UNL     1      46.236   6.538  12.776  0.00  0.00    +0.000 A 
ENDROOT
BRANCH   1  13
ATOM     13  C   UNL     1      44.230   5.501  11.649  0.00  0.00    +0.000 C 
BRANCH  13  14
ATOM     14  N   UNL     1      44.682   5.627  10.274  0.00  0.00    +0.000 N 
ATOM     15  H   UNL     1      44.167   6.319   9.735  0.00  0.00    +0.000 HD
BRANCH  14  20
ATOM     16  C   UNL     1      45.040   2.093   9.118  0.00  0.00    +0.000 A 
ATOM     17  C   UNL     1      45.889   2.316   8.048  0.00  0.00    +0.000 A 
ATOM     18  N   UNL     1      46.323   3.540   7.692  0.00  0.00    +0.000 NA
ATOM     19  C   UNL     1      45.880   4.580   8.446  0.00  0.00    +0.000 A 
ATOM     20  C   UNL     1      44.999   4.487   9.529  0.00  0.00    +0.000 A 
ATOM     21  C   UNL     1      44.605   3.189   9.866  0.00  0.00    +0.000 A 
ENDBRANCH  14  20
ENDBRANCH  13  14
ENDBRANCH   1  13
TORSDOF 3
ENDMDL
MODEL 6
REMARK VINA RESULT:    -5.991      2.758      7.149
REMARK INTER + INTRA:          -7.422
REMARK INTER:                  -6.977
REMARK INTRA:                  -0.445
REMARK UNBOUND:                -0.381
REMARK  Name = 
REMARK  3 active torsions:
REMARK  status: ('A' for Active; 'I' for Inactive)
REMARK    1  A    between atoms: C_5  and  N_6
REMARK    2  A    between atoms: N_6  and  C_7
REMARK    3  A    between atoms: C_7  and  C_8
REMARK                            x       y       z     vdW  Elec       q    Type
REMARK                         _______ _______ _______ _____ _____    ______ ____
ROOT
ATOM      1  C   UNL     1      47.532   7.338  13.854  0.00  0.00    +0.000 A 
ATOM      2  C   UNL     1      46.813   8.490  13.558  0.00  0.00    +0.000 A 
ATOM      3  C   UNL     1      45.761   8.388  12.658  0.00  0.00    +0.000 A 
ATOM      4  N   UNL     1      45.387   7.241  12.045  0.00  0.00    +0.000 NA
ATOM      5  C   UNL     1      46.044   6.107  12.365  0.00  0.00    +0.000 A 
ATOM      6  N   UNL     1      45.725   4.912  11.734  0.00  0.00    +0.000 N 
ATOM      7  C   UNL     1      45.194   4.949  10.374  0.00  0.00    +0.000 C 
ATOM      8  C   UNL     1      43.707   4.614  10.316  0.00  0.00    +0.000 C 
ATOM      9  C   UNL     1      43.393   3.340  11.095  0.00  0.00    +0.000 C 
ATOM     10  C   UNL     1      43.888   3.471  12.531  0.00  0.00    +0.000 C 
ATOM     11  C   UNL     1      45.388   3.764  12.573  0.00  0.00    +0.000 C 
ATOM     12  C   UNL     1      47.107   6.134  13.274  0.00  0.00    +0.000 A 
ENDROOT
BRANCH   1  13
ATOM     13  C   UNL     1      48.767   7.371  14.718  0.00  0.00    +0.000 C 
BRANCH  13  14
ATOM     14  N   UNL     1      48.469   6.930  16.070  0.00  0.00    +0.000 N 
ATOM     15  H   UNL     1      48.720   7.606  16.787  0.00  0.00    +0.000 HD
BRANCH  14  20
ATOM     16  C   UNL     1      48.086   3.336  17.014  0.00  0.00    +0.000 A 
ATOM     17  C   UNL     1      49.382   3.099  17.435  0.00  0.00    +0.000 A 
ATOM     18  N   UNL     1      50.350   4.035  17.410  0.00  0.00    +0.000 NA
ATOM     19  C   UNL     1      49.994   5.258  16.937  0.00  0.00    +0.000 A 
ATOM     20  C   UNL     1      48.729   5.612  16.455  0.00  0.00    +0.000 A 
ATOM     21  C   UNL     1      47.761   4.606  16.533  0.00  0.00    +0.000 A 
ENDBRANCH  14  20
ENDBRANCH  13  14
ENDBRANCH   1  13
TORSDOF 3
ENDMDL
MODEL 7
REMARK VINA RESULT:    -5.949      2.379      6.779
REMARK INTER + INTRA:          -7.372
REMARK INTER:                  -6.941
REMARK INTRA:                  -0.432
REMARK UNBOUND:                -0.381
REMARK  Name = 
REMARK  3 active torsions:
REMARK  status: ('A' for Active; 'I' for Inactive)
REMARK    1  A    between atoms: C_5  and  N_6
REMARK    2  A    between atoms: N_6  and  C_7
REMARK    3  A    between atoms: C_7  and  C_8
REMARK                            x       y       z     vdW  Elec       q    Type
REMARK                         _______ _______ _______ _____ _____    ______ ____
ROOT
ATOM      1  C   UNL     1      46.620   6.814  12.882  0.00  0.00    +0.000 A 
ATOM      2  C   UNL     1      46.966   5.841  13.811  0.00  0.00    +0.000 A 
ATOM      3  C   UNL     1      46.574   4.532  13.562  0.00  0.00    +0.000 A 
ATOM      4  N   UNL     1      45.874   4.139  12.473  0.00  0.00    +0.000 NA
ATOM      5  C   UNL     1      45.578   5.066  11.539  0.00  0.00    +0.000 A 
ATOM      6  N   UNL     1      44.827   4.720  10.423  0.00  0.00    +0.000 N 
ATOM      7  C   UNL     1      43.862   3.630  10.530  0.00  0.00    +0.000 C 
ATOM      8  C   UNL     1      44.316   2.372   9.796  0.00  0.00    +0.000 C 
ATOM      9  C   UNL     1      44.773   2.690   8.376  0.00  0.00    +0.000 C 
ATOM     10  C   UNL     1      45.865   3.753   8.405  0.00  0.00    +0.000 C 
ATOM     11  C   UNL     1      45.380   5.023   9.105  0.00  0.00    +0.000 C 
ATOM     12  C   UNL     1      45.953   6.402  11.719  0.00  0.00    +0.000 A 
ENDROOT
BRANCH   1  13
ATOM     13  C   UNL     1      46.888   8.278  13.125  0.00  0.00    +0.000 C 
BRANCH  13  14
ATOM     14  N   UNL     1      45.652   9.041  13.124  0.00  0.00    +0.000 N 
ATOM     15  H   UNL     1      44.836   8.501  13.400  0.00  0.00    +0.000 HD
BRANCH  14  20
ATOM     16  C   UNL     1      44.077  10.787  10.220  0.00  0.00    +0.000 A 
ATOM     17  C   UNL     1      45.098  11.680   9.945  0.00  0.00    +0.000 A 
ATOM     18  N   UNL     1      46.239  11.742  10.659  0.00  0.00    +0.000 NA
ATOM     19  C   UNL     1      46.351  10.868  11.692  0.00  0.00    +0.000 A 
ATOM     20  C   UNL     1      45.380   9.941  12.089  0.00  0.00    +0.000 A 
ATOM     21  C   UNL     1      44.231   9.907  11.294  0.00  0.00    +0.000 A 
ENDBRANCH  14  20
ENDBRANCH  13  14
ENDBRANCH   1  13
TORSDOF 3
ENDMDL
MODEL 8
REMARK VINA RESULT:    -5.625      2.014      6.479
REMARK INTER + INTRA:          -6.992
REMARK INTER:                  -6.633
REMARK INTRA:                  -0.359
REMARK UNBOUND:                -0.381
REMARK  Name = 
REMARK  3 active torsions:
REMARK  status: ('A' for Active; 'I' for Inactive)
REMARK    1  A    between atoms: C_5  and  N_6
REMARK    2  A    between atoms: N_6  and  C_7
REMARK    3  A    between atoms: C_7  and  C_8
REMARK                            x       y       z     vdW  Elec       q    Type
REMARK                         _______ _______ _______ _____ _____    ______ ____
ROOT
ATOM      1  C   UNL     1      46.560   6.734  12.995  0.00  0.00    +0.000 A 
ATOM      2  C   UNL     1      46.951   5.738  13.882  0.00  0.00    +0.000 A 
ATOM      3  C   UNL     1      46.595   4.429  13.590  0.00  0.00    +0.000 A 
ATOM      4  N   UNL     1      45.889   4.054  12.497  0.00  0.00    +0.000 NA
ATOM      5  C   UNL     1      45.550   5.005  11.604  0.00  0.00    +0.000 A 
ATOM      6  N   UNL     1      44.791   4.677  10.487  0.00  0.00    +0.000 N 
ATOM      7  C   UNL     1      43.861   3.553  10.568  0.00  0.00    +0.000 C 
ATOM      8  C   UNL     1      44.343   2.338   9.782  0.00  0.00    +0.000 C 
ATOM      9  C   UNL     1      44.766   2.722   8.368  0.00  0.00    +0.000 C 
ATOM     10  C   UNL     1      45.825   3.818   8.419  0.00  0.00    +0.000 C 
ATOM     11  C   UNL     1      45.313   5.045   9.173  0.00  0.00    +0.000 C 
ATOM     12  C   UNL     1      45.887   6.344  11.828  0.00  0.00    +0.000 A 
ENDROOT
BRANCH   1  13
ATOM     13  C   UNL     1      46.786   8.196  13.288  0.00  0.00    +0.000 C 
BRANCH  13  14
ATOM     14  N   UNL     1      47.236   8.902  12.100  0.00  0.00    +0.000 N 
ATOM     15  H   UNL     1      46.635   8.766  11.290  0.00  0.00    +0.000 HD
BRANCH  14  20
ATOM     16  C   UNL     1      50.749   7.905  11.315  0.00  0.00    +0.000 A 
ATOM     17  C   UNL     1      51.321   9.164  11.317  0.00  0.00    +0.000 A 
ATOM     18  N   UNL     1      50.622  10.293  11.543  0.00  0.00    +0.000 NA
ATOM     19  C   UNL     1      49.292  10.143  11.773  0.00  0.00    +0.000 A 
ATOM     20  C   UNL     1      48.593   8.930  11.768  0.00  0.00    +0.000 A 
ATOM     21  C   UNL     1      49.378   7.793  11.554  0.00  0.00    +0.000 A 
ENDBRANCH  14  20
ENDBRANCH  13  14
ENDBRANCH   1  13
TORSDOF 3
ENDMDL
MODEL 9
REMARK VINA RESULT:    -5.383      2.043      3.617
REMARK INTER + INTRA:          -6.707
REMARK INTER:                  -6.384
REMARK INTRA:                  -0.324
REMARK UNBOUND:                -0.381
REMARK  Name = 
REMARK  3 active torsions:
REMARK  status: ('A' for Active; 'I' for Inactive)
REMARK    1  A    between atoms: C_5  and  N_6
REMARK    2  A    between atoms: N_6  and  C_7
REMARK    3  A    between atoms: C_7  and  C_8
REMARK                            x       y       z     vdW  Elec       q    Type
REMARK                         _______ _______ _______ _____ _____    ______ ____
ROOT
ATOM      1  C   UNL     1      46.466   6.600  12.585  0.00  0.00    +0.000 A 
ATOM      2  C   UNL     1      45.543   7.639  12.595  0.00  0.00    +0.000 A 
ATOM      3  C   UNL     1      46.023   8.935  12.728  0.00  0.00    +0.000 A 
ATOM      4  N   UNL     1      47.332   9.257  12.850  0.00  0.00    +0.000 NA
ATOM      5  C   UNL     1      48.239   8.262  12.789  0.00  0.00    +0.000 A 
ATOM      6  N   UNL     1      49.591   8.536  12.949  0.00  0.00    +0.000 N 
ATOM      7  C   UNL     1      49.989   9.677  13.770  0.00  0.00    +0.000 C 
ATOM      8  C   UNL     1      50.527  10.837  12.937  0.00  0.00    +0.000 C 
ATOM      9  C   UNL     1      51.578  10.364  11.938  0.00  0.00    +0.000 C 
ATOM     10  C   UNL     1      51.005   9.257  11.061  0.00  0.00    +0.000 C 
ATOM     11  C   UNL     1      50.510   8.084  11.907  0.00  0.00    +0.000 C 
ATOM     12  C   UNL     1      47.827   6.932  12.644  0.00  0.00    +0.000 A 
ENDROOT
BRANCH   1  13
ATOM     13  C   UNL     1      46.037   5.154  12.573  0.00  0.00    +0.000 C 
BRANCH  13  14
ATOM     14  N   UNL     1      44.816   4.979  11.804  0.00  0.00    +0.000 N 
ATOM     15  H   UNL     1      44.022   4.674  12.360  0.00  0.00    +0.000 HD
BRANCH  14  20
ATOM     16  C   UNL     1      44.567   2.521   9.002  0.00  0.00    +0.000 A 
ATOM     17  C   UNL     1      45.204   3.265   8.025  0.00  0.00    +0.000 A 
ATOM     18  N   UNL     1      45.685   4.506   8.235  0.00  0.00    +0.000 NA
ATOM     19  C   UNL     1      45.511   5.016   9.482  0.00  0.00    +0.000 A 
ATOM     20  C   UNL     1      44.858   4.377  10.544  0.00  0.00    +0.000 A 
ATOM     21  C   UNL     1      44.407   3.083  10.270  0.00  0.00    +0.000 A 
ENDBRANCH  14  20
ENDBRANCH  13  14
ENDBRANCH   1  13
TORSDOF 3
ENDMDL
