MODEL 1
REMARK VINA RESULT:    -8.819      0.000      0.000
REMARK INTER + INTRA:         -12.586
REMARK INTER:                 -11.912
REMARK INTRA:                  -0.674
REMARK UNBOUND:                -0.674
REMARK  Name = 
REMARK  6 active torsions:
REMARK  status: ('A' for Active; 'I' for Inactive)
REMARK    1  A    between atoms: C_2  and  C_4
REMARK    2  A    between atoms: N_8  and  C_9
REMARK    3  A    between atoms: C_9  and  C_10
REMARK    4  A    between atoms: C_10  and  C_11
REMARK    5  A    between atoms: C_13  and  N_14
REMARK    6  A    between atoms: N_14  and  C_15
REMARK                            x       y       z     vdW  Elec       q    Type
REMARK                         _______ _______ _______ _____ _____    ______ ____
ROOT
ATOM      1  C   UNL     1      43.406   5.359  12.203  0.00  0.00    +0.000 C 
ENDROOT
BRANCH   1   2
ATOM      2  C   UNL     1      44.796   5.617  12.745  0.00  0.00    +0.000 A 
ATOM      3  C   UNL     1      45.367   4.666  13.612  0.00  0.00    +0.000 A 
ATOM      4  C   UNL     1      46.641   4.844  14.180  0.00  0.00    +0.000 A 
ATOM      5  C   UNL     1      47.362   5.989  13.840  0.00  0.00    +0.000 A 
ATOM      6  C   UNL     1      46.824   6.931  12.955  0.00  0.00    +0.000 A 
ATOM      7  C   UNL     1      45.553   6.744  12.405  0.00  0.00    +0.000 A 
ATOM      8 CL   UNL     1      44.978   7.930  11.291  0.00  0.00    +0.000 Cl
BRANCH   4   9
ATOM      9  N   UNL     1      47.175   3.820  14.991  0.00  0.00    +0.000 N 
ATOM     10  H   UNL     1      46.554   3.016  15.039  0.00  0.00    +0.000 HD
BRANCH   9  11
ATOM     11  C   UNL     1      47.911   4.003  16.218  0.00  0.00    +0.000 C 
ATOM     12  C   UNL     1      48.206   2.663  16.926  0.00  0.00    +0.000 C 
ATOM     13  N   UNL     1      47.585   3.169  18.160  0.00  0.00    +0.000 NA
ATOM     14  C   UNL     1      47.016   4.318  17.434  0.00  0.00    +0.000 C 
ATOM     15  H   UNL     1      48.260   3.432  18.878  0.00  0.00    +0.000 HD
ENDBRANCH   9  11
ENDBRANCH   4   9
ENDBRANCH   1   2
BRANCH   1  16
ATOM     16  C   UNL     1      43.380   4.215  11.182  0.00  0.00    +0.000 C 
BRANCH  16  21
ATOM     17  C   UNL     1      46.415   2.495   7.722  0.00  0.00    +0.000 A 
ATOM     18  C   UNL     1      45.540   1.917   8.607  0.00  0.00    +0.000 A 
ATOM     19  N   UNL     1      44.634   2.615   9.322  0.00  0.00    +0.000 NA
ATOM     20  C   UNL     1      44.614   3.947   9.157  0.00  0.00    +0.000 A 
ATOM     21  N   UNL     1      43.703   4.726   9.857  0.00  0.00    +0.000 N 
ATOM     22  N   UNL     1      45.446   4.607   8.339  0.00  0.00    +0.000 NA
ATOM     23  C   UNL     1      46.337   3.866   7.638  0.00  0.00    +0.000 A 
ATOM     24  H   UNL     1      44.071   5.672   9.827  0.00  0.00    +0.000 HD
BRANCH  17  26
ATOM     25  N   UNL     1      48.488   2.420   6.462  0.00  0.00    +0.000 N 
ATOM     26  C   UNL     1      47.398   1.742   6.933  0.00  0.00    +0.000 C 
ATOM     27  O   UNL     1      47.259   0.543   6.730  0.00  0.00    +0.000 OA
ATOM     28  H   UNL     1      49.197   1.861   5.999  0.00  0.00    +0.000 HD
ATOM     29  H   UNL     1      48.773   3.326   6.804  0.00  0.00    +0.000 HD
ENDBRANCH  17  26
ENDBRANCH  16  21
ENDBRANCH   1  16
TORSDOF 6
ENDMDL
MODEL 2
REMARK VINA RESULT:    -7.523      3.267      5.352
REMARK INTER + INTRA:         -10.836
REMARK INTER:                 -10.473
REMARK INTRA:                  -0.363
REMARK UNBOUND:                -0.674
REMARK  Name = 
REMARK  6 active torsions:
REMARK  status: ('A' for Active; 'I' for Inactive)
REMARK    1  A    between atoms: C_2  and  C_4
REMARK    2  A    between atoms: N_8  and  C_9
REMARK    3  A    between atoms: C_9  and  C_10
REMARK    4  A    between atoms: C_10  and  C_11
REMARK    5  A    between atoms: C_13  and  N_14
REMARK    6  A    between atoms: N_14  and  C_15
REMARK                            x       y       z     vdW  Elec       q    Type
REMARK                         _______ _______ _______ _____ _____    ______ ____
ROOT
ATOM      1  C   UNL     1      45.295   5.161  11.936  0.00  0.00    +0.000 C 
ENDROOT
BRANCH   1   2
ATOM      2  C   UNL     1      45.584   6.647  11.990  0.00  0.00    +0.000 A 
ATOM      3  C   UNL     1      44.533   7.546  11.729  0.00  0.00    +0.000 A 
ATOM      4  C   UNL     1      44.724   8.939  11.732  0.00  0.00    +0.000 A 
ATOM      5  C   UNL     1      45.995   9.430  12.036  0.00  0.00    +0.000 A 
ATOM      6  C   UNL     1      47.045   8.553  12.329  0.00  0.00    +0.000 A 
ATOM      7  C   UNL     1      46.840   7.170  12.314  0.00  0.00    +0.000 A 
ATOM      8 CL   UNL     1      48.176   6.157  12.728  0.00  0.00    +0.000 Cl
BRANCH   4   9
ATOM      9  N   UNL     1      43.613   9.781  11.522  0.00  0.00    +0.000 N 
ATOM     10  H   UNL     1      43.055   9.885  12.367  0.00  0.00    +0.000 HD
BRANCH   9  11
ATOM     11  C   UNL     1      42.797   9.835  10.332  0.00  0.00    +0.000 C 
ATOM     12  C   UNL     1      43.470  10.641   9.201  0.00  0.00    +0.000 C 
ATOM     13  N   UNL     1      42.277  11.495   9.090  0.00  0.00    +0.000 NA
ATOM     14  C   UNL     1      41.745  10.962  10.356  0.00  0.00    +0.000 C 
ATOM     15  H   UNL     1      41.697  11.282   8.279  0.00  0.00    +0.000 HD
ENDBRANCH   9  11
ENDBRANCH   4   9
ENDBRANCH   1   2
BRANCH   1  16
ATOM     16  C   UNL     1      44.025   4.841  11.140  0.00  0.00    +0.000 C 
BRANCH  16  21
ATOM     17  C   UNL     1      46.503   2.401   7.668  0.00  0.00    +0.000 A 
ATOM     18  C   UNL     1      45.690   2.030   8.710  0.00  0.00    +0.000 A 
ATOM     19  N   UNL     1      44.930   2.899   9.408  0.00  0.00    +0.000 NA
ATOM     20  C   UNL     1      44.997   4.193   9.059  0.00  0.00    +0.000 A 
ATOM     21  N   UNL     1      44.235   5.139   9.730  0.00  0.00    +0.000 N 
ATOM     22  N   UNL     1      45.781   4.657   8.076  0.00  0.00    +0.000 NA
ATOM     23  C   UNL     1      46.526   3.750   7.400  0.00  0.00    +0.000 A 
ATOM     24  H   UNL     1      44.672   6.035   9.529  0.00  0.00    +0.000 HD
BRANCH  17  26
ATOM     25  N   UNL     1      48.425   1.960   6.254  0.00  0.00    +0.000 N 
ATOM     26  C   UNL     1      47.328   1.461   6.899  0.00  0.00    +0.000 C 
ATOM     27  O   UNL     1      47.057   0.268   6.861  0.00  0.00    +0.000 OA
ATOM     28  H   UNL     1      49.029   1.279   5.805  0.00  0.00    +0.000 HD
ATOM     29  H   UNL     1      48.826   2.865   6.453  0.00  0.00    +0.000 HD
ENDBRANCH  17  26
ENDBRANCH  16  21
ENDBRANCH   1  16
TORSDOF 6
ENDMDL
MODEL 3
REMARK VINA RESULT:    -7.464      3.026      4.857
REMARK INTER + INTRA:         -10.757
REMARK INTER:                  -9.993
REMARK INTRA:                  -0.764
REMARK UNBOUND:                -0.674
REMARK  Name = 
REMARK  6 active torsions:
REMARK  status: ('A' for Active; 'I' for Inactive)
REMARK    1  A    between atoms: C_2  and  C_4
REMARK    2  A    between atoms: N_8  and  C_9
REMARK    3  A    between atoms: C_9  and  C_10
REMARK    4  A    between atoms: C_10  and  C_11
REMARK    5  A    between atoms: C_13  and  N_14
REMARK    6  A    between atoms: N_14  and  C_15
REMARK                            x       y       z     vdW  Elec       q    Type
REMARK                         _______ _______ _______ _____ _____    ______ ____
ROOT
ATOM      1  C   UNL     1      43.521   4.442  12.336  0.00  0.00    +0.000 C 
ENDROOT
BRANCH   1   2
ATOM      2  C   UNL     1      44.602   5.499  12.252  0.00  0.00    +0.000 A 
ATOM      3  C   UNL     1      44.260   6.774  11.764  0.00  0.00    +0.000 A 
ATOM      4  C   UNL     1      45.210   7.802  11.628  0.00  0.00    +0.000 A 
ATOM      5  C   UNL     1      46.523   7.543  12.023  0.00  0.00    +0.000 A 
ATOM      6  C   UNL     1      46.877   6.292  12.540  0.00  0.00    +0.000 A 
ATOM      7  C   UNL     1      45.922   5.278  12.661  0.00  0.00    +0.000 A 
ATOM      8 CL   UNL     1      46.429   3.776  13.346  0.00  0.00    +0.000 Cl
BRANCH   4   9
ATOM      9  N   UNL     1      44.782   9.072  11.190  0.00  0.00    +0.000 N 
ATOM     10  H   UNL     1      45.224   9.336  10.313  0.00  0.00    +0.000 HD
BRANCH   9  11
ATOM     11  C   UNL     1      44.526  10.220  12.027  0.00  0.00    +0.000 C 
ATOM     12  C   UNL     1      43.274  11.002  11.575  0.00  0.00    +0.000 C 
ATOM     13  N   UNL     1      44.066  12.239  11.496  0.00  0.00    +0.000 NA
ATOM     14  C   UNL     1      45.320  11.475  11.613  0.00  0.00    +0.000 C 
ATOM     15  H   UNL     1      43.902  12.879  12.273  0.00  0.00    +0.000 HD
ENDBRANCH   9  11
ENDBRANCH   4   9
ENDBRANCH   1   2
BRANCH   1  16
ATOM     16  C   UNL     1      43.295   3.730  10.998  0.00  0.00    +0.000 C 
BRANCH  16  21
ATOM     17  C   UNL     1      46.484   2.791   7.379  0.00  0.00    +0.000 A 
ATOM     18  C   UNL     1      46.046   3.933   8.003  0.00  0.00    +0.000 A 
ATOM     19  N   UNL     1      45.319   3.929   9.140  0.00  0.00    +0.000 NA
ATOM     20  C   UNL     1      45.005   2.734   9.665  0.00  0.00    +0.000 A 
ATOM     21  N   UNL     1      44.266   2.656  10.837  0.00  0.00    +0.000 N 
ATOM     22  N   UNL     1      45.362   1.564   9.115  0.00  0.00    +0.000 NA
ATOM     23  C   UNL     1      46.092   1.616   7.976  0.00  0.00    +0.000 A 
ATOM     24  H   UNL     1      43.889   1.713  10.861  0.00  0.00    +0.000 HD
BRANCH  17  26
ATOM     25  N   UNL     1      48.624   2.553   6.259  0.00  0.00    +0.000 N 
ATOM     26  C   UNL     1      47.281   2.788   6.146  0.00  0.00    +0.000 C 
ATOM     27  O   UNL     1      46.757   2.960   5.054  0.00  0.00    +0.000 OA
ATOM     28  H   UNL     1      49.138   2.465   5.389  0.00  0.00    +0.000 HD
ATOM     29  H   UNL     1      49.055   2.165   7.085  0.00  0.00    +0.000 HD
ENDBRANCH  17  26
ENDBRANCH  16  21
ENDBRANCH   1  16
TORSDOF 6
ENDMDL
MODEL 4
REMARK VINA RESULT:    -7.335      3.220      8.242
REMARK INTER + INTRA:         -10.582
REMARK INTER:                 -10.212
REMARK INTRA:                  -0.370
REMARK UNBOUND:                -0.674
REMARK  Name = 
REMARK  6 active torsions:
REMARK  status: ('A' for Active; 'I' for Inactive)
REMARK    1  A    between atoms: C_2  and  C_4
REMARK    2  A    between atoms: N_8  and  C_9
REMARK    3  A    between atoms: C_9  and  C_10
REMARK    4  A    between atoms: C_10  and  C_11
REMARK    5  A    between atoms: C_13  and  N_14
REMARK    6  A    between atoms: N_14  and  C_15
REMARK                            x       y       z     vdW  Elec       q    Type
REMARK                         _______ _______ _______ _____ _____    ______ ____
ROOT
ATOM      1  C   UNL     1      45.387   5.943  11.561  0.00  0.00    +0.000 C 
ENDROOT
BRANCH   1   2
ATOM      2  C   UNL     1      45.107   4.778  10.633  0.00  0.00    +0.000 A 
ATOM      3  C   UNL     1      45.748   4.748   9.380  0.00  0.00    +0.000 A 
ATOM      4  C   UNL     1      45.521   3.718   8.450  0.00  0.00    +0.000 A 
ATOM      5  C   UNL     1      44.655   2.684   8.809  0.00  0.00    +0.000 A 
ATOM      6  C   UNL     1      44.033   2.680  10.062  0.00  0.00    +0.000 A 
ATOM      7  C   UNL     1      44.263   3.716  10.972  0.00  0.00    +0.000 A 
ATOM      8 CL   UNL     1      43.490   3.616  12.513  0.00  0.00    +0.000 Cl
BRANCH   4   9
ATOM      9  N   UNL     1      46.244   3.720   7.239  0.00  0.00    +0.000 N 
ATOM     10  H   UNL     1      46.020   4.533   6.669  0.00  0.00    +0.000 HD
BRANCH   9  11
ATOM     11  C   UNL     1      46.555   2.567   6.430  0.00  0.00    +0.000 C 
ATOM     12  C   UNL     1      47.734   1.753   7.004  0.00  0.00    +0.000 C 
ATOM     13  N   UNL     1      48.438   1.849   5.715  0.00  0.00    +0.000 NA
ATOM     14  C   UNL     1      47.493   2.878   5.246  0.00  0.00    +0.000 C 
ATOM     15  H   UNL     1      48.410   0.988   5.170  0.00  0.00    +0.000 HD
ENDBRANCH   9  11
ENDBRANCH   4   9
ENDBRANCH   1   2
BRANCH   1  16
ATOM     16  C   UNL     1      46.553   5.662  12.516  0.00  0.00    +0.000 C 
BRANCH  16  21
ATOM     17  C   UNL     1      48.794   4.775  16.797  0.00  0.00    +0.000 A 
ATOM     18  C   UNL     1      48.840   5.797  15.882  0.00  0.00    +0.000 A 
ATOM     19  N   UNL     1      47.956   5.931  14.872  0.00  0.00    +0.000 NA
ATOM     20  C   UNL     1      46.997   4.998  14.764  0.00  0.00    +0.000 A 
ATOM     21  N   UNL     1      46.051   5.079  13.753  0.00  0.00    +0.000 N 
ATOM     22  N   UNL     1      46.887   3.948  15.591  0.00  0.00    +0.000 NA
ATOM     23  C   UNL     1      47.794   3.854  16.592  0.00  0.00    +0.000 A 
ATOM     24  H   UNL     1      45.655   4.146  13.672  0.00  0.00    +0.000 HD
BRANCH  17  26
ATOM     25  N   UNL     1      49.854   3.395  18.489  0.00  0.00    +0.000 N 
ATOM     26  C   UNL     1      49.748   4.626  17.904  0.00  0.00    +0.000 C 
ATOM     27  O   UNL     1      50.442   5.565  18.271  0.00  0.00    +0.000 OA
ATOM     28  H   UNL     1      50.582   3.292  19.188  0.00  0.00    +0.000 HD
ATOM     29  H   UNL     1      49.499   2.546  18.073  0.00  0.00    +0.000 HD
ENDBRANCH  17  26
ENDBRANCH  16  21
ENDBRANCH   1  16
TORSDOF 6
ENDMDL
MODEL 5
REMARK VINA RESULT:    -7.037      2.411      3.611
REMARK INTER + INTRA:         -10.180
REMARK INTER:                 -10.118
REMARK INTRA:                  -0.062
REMARK UNBOUND:                -0.674
REMARK  Name = 
REMARK  6 active torsions:
REMARK  status: ('A' for Active; 'I' for Inactive)
REMARK    1  A    between atoms: C_2  and  C_4
REMARK    2  A    between atoms: N_8  and  C_9
REMARK    3  A    between atoms: C_9  and  C_10
REMARK    4  A    between atoms: C_10  and  C_11
REMARK    5  A    between atoms: C_13  and  N_14
REMARK    6  A    between atoms: N_14  and  C_15
REMARK                            x       y       z     vdW  Elec       q    Type
REMARK                         _______ _______ _______ _____ _____    ______ ____
ROOT
ATOM      1  C   UNL     1      43.621   5.928  11.774  0.00  0.00    +0.000 C 
ENDROOT
BRANCH   1   2
ATOM      2  C   UNL     1      44.936   5.743  12.503  0.00  0.00    +0.000 A 
ATOM      3  C   UNL     1      45.745   6.873  12.728  0.00  0.00    +0.000 A 
ATOM      4  C   UNL     1      46.992   6.782  13.372  0.00  0.00    +0.000 A 
ATOM      5  C   UNL     1      47.412   5.530  13.824  0.00  0.00    +0.000 A 
ATOM      6  C   UNL     1      46.608   4.400  13.637  0.00  0.00    +0.000 A 
ATOM      7  C   UNL     1      45.374   4.506  12.988  0.00  0.00    +0.000 A 
ATOM      8 CL   UNL     1      44.423   3.073  12.834  0.00  0.00    +0.000 Cl
BRANCH   4   9
ATOM      9  N   UNL     1      47.720   7.964  13.618  0.00  0.00    +0.000 N 
ATOM     10  H   UNL     1      47.190   8.622  14.184  0.00  0.00    +0.000 HD
BRANCH   9  11
ATOM     11  C   UNL     1      48.589   8.640  12.684  0.00  0.00    +0.000 C 
ATOM     12  C   UNL     1      49.816   9.267  13.378  0.00  0.00    +0.000 C 
ATOM     13  N   UNL     1      49.490  10.576  12.790  0.00  0.00    +0.000 NA
ATOM     14  C   UNL     1      48.160  10.091  12.381  0.00  0.00    +0.000 C 
ATOM     15  H   UNL     1      50.091  10.832  12.007  0.00  0.00    +0.000 HD
ENDBRANCH   9  11
ENDBRANCH   4   9
ENDBRANCH   1   2
BRANCH   1  16
ATOM     16  C   UNL     1      43.271   4.727  10.888  0.00  0.00    +0.000 C 
BRANCH  16  21
ATOM     17  C   UNL     1      46.272   2.182   7.946  0.00  0.00    +0.000 A 
ATOM     18  C   UNL     1      45.303   1.842   8.856  0.00  0.00    +0.000 A 
ATOM     19  N   UNL     1      44.441   2.731   9.392  0.00  0.00    +0.000 NA
ATOM     20  C   UNL     1      44.563   4.012   9.013  0.00  0.00    +0.000 A 
ATOM     21  N   UNL     1      43.705   4.978   9.520  0.00  0.00    +0.000 N 
ATOM     22  N   UNL     1      45.495   4.447   8.152  0.00  0.00    +0.000 NA
ATOM     23  C   UNL     1      46.338   3.520   7.637  0.00  0.00    +0.000 A 
ATOM     24  H   UNL     1      44.168   5.868   9.360  0.00  0.00    +0.000 HD
BRANCH  17  26
ATOM     25  N   UNL     1      48.262   1.718   6.636  0.00  0.00    +0.000 N 
ATOM     26  C   UNL     1      47.209   1.220   7.352  0.00  0.00    +0.000 C 
ATOM     27  O   UNL     1      47.067   0.015   7.517  0.00  0.00    +0.000 OA
ATOM     28  H   UNL     1      48.945   1.040   6.313  0.00  0.00    +0.000 HD
ATOM     29  H   UNL     1      48.561   2.681   6.679  0.00  0.00    +0.000 HD
ENDBRANCH  17  26
ENDBRANCH  16  21
ENDBRANCH   1  16
TORSDOF 6
ENDMDL
MODEL 6
REMARK VINA RESULT:    -6.595      3.627      8.056
REMARK INTER + INTRA:          -9.582
REMARK INTER:                  -9.128
REMARK INTRA:                  -0.454
REMARK UNBOUND:                -0.674
REMARK  Name = 
REMARK  6 active torsions:
REMARK  status: ('A' for Active; 'I' for Inactive)
REMARK    1  A    between atoms: C_2  and  C_4
REMARK    2  A    between atoms: N_8  and  C_9
REMARK    3  A    between atoms: C_9  and  C_10
REMARK    4  A    between atoms: C_10  and  C_11
REMARK    5  A    between atoms: C_13  and  N_14
REMARK    6  A    between atoms: N_14  and  C_15
REMARK                            x       y       z     vdW  Elec       q    Type
REMARK                         _______ _______ _______ _____ _____    ______ ____
ROOT
ATOM      1  C   UNL     1      44.892   6.502  11.215  0.00  0.00    +0.000 C 
ENDROOT
BRANCH   1   2
ATOM      2  C   UNL     1      44.884   5.159  10.514  0.00  0.00    +0.000 A 
ATOM      3  C   UNL     1      45.629   5.015   9.328  0.00  0.00    +0.000 A 
ATOM      4  C   UNL     1      45.652   3.811   8.602  0.00  0.00    +0.000 A 
ATOM      5  C   UNL     1      44.934   2.725   9.103  0.00  0.00    +0.000 A 
ATOM      6  C   UNL     1      44.213   2.838  10.297  0.00  0.00    +0.000 A 
ATOM      7  C   UNL     1      44.193   4.045  11.002  0.00  0.00    +0.000 A 
ATOM      8 CL   UNL     1      43.314   4.092  12.487  0.00  0.00    +0.000 Cl
BRANCH   4   9
ATOM      9  N   UNL     1      46.469   3.721   7.456  0.00  0.00    +0.000 N 
ATOM     10  H   UNL     1      46.439   4.575   6.904  0.00  0.00    +0.000 HD
BRANCH   9  11
ATOM     11  C   UNL     1      46.648   2.554   6.627  0.00  0.00    +0.000 C 
ATOM     12  C   UNL     1      48.035   1.906   6.824  0.00  0.00    +0.000 C 
ATOM     13  N   UNL     1      48.287   1.987   5.377  0.00  0.00    +0.000 NA
ATOM     14  C   UNL     1      47.129   2.880   5.198  0.00  0.00    +0.000 C 
ATOM     15  H   UNL     1      48.194   1.093   4.895  0.00  0.00    +0.000 HD
ENDBRANCH   9  11
ENDBRANCH   4   9
ENDBRANCH   1   2
BRANCH   1  16
ATOM     16  C   UNL     1      45.792   6.507  12.456  0.00  0.00    +0.000 C 
BRANCH  16  21
ATOM     17  C   UNL     1      49.848   7.113  15.162  0.00  0.00    +0.000 A 
ATOM     18  C   UNL     1      48.742   6.306  15.256  0.00  0.00    +0.000 A 
ATOM     19  N   UNL     1      47.845   6.154  14.259  0.00  0.00    +0.000 NA
ATOM     20  C   UNL     1      48.055   6.849  13.130  0.00  0.00    +0.000 A 
ATOM     21  N   UNL     1      47.176   6.734  12.063  0.00  0.00    +0.000 N 
ATOM     22  N   UNL     1      49.090   7.683  12.954  0.00  0.00    +0.000 NA
ATOM     23  C   UNL     1      49.967   7.804  13.979  0.00  0.00    +0.000 A 
ATOM     24  H   UNL     1      47.342   7.552  11.482  0.00  0.00    +0.000 HD
BRANCH  17  26
ATOM     25  N   UNL     1      50.497   8.087  17.289  0.00  0.00    +0.000 N 
ATOM     26  C   UNL     1      50.833   7.278  16.239  0.00  0.00    +0.000 C 
ATOM     27  O   UNL     1      51.905   6.688  16.210  0.00  0.00    +0.000 OA
ATOM     28  H   UNL     1      51.153   8.114  18.062  0.00  0.00    +0.000 HD
ATOM     29  H   UNL     1      49.553   8.389  17.481  0.00  0.00    +0.000 HD
ENDBRANCH  17  26
ENDBRANCH  16  21
ENDBRANCH   1  16
TORSDOF 6
ENDMDL
MODEL 7
REMARK VINA RESULT:    -6.409      3.813      7.456
REMARK INTER + INTRA:          -9.331
REMARK INTER:                  -8.637
REMARK INTRA:                  -0.693
REMARK UNBOUND:                -0.674
REMARK  Name = 
REMARK  6 active torsions:
REMARK  status: ('A' for Active; 'I' for Inactive)
REMARK    1  A    between atoms: C_2  and  C_4
REMARK    2  A    between atoms: N_8  and  C_9
REMARK    3  A    between atoms: C_9  and  C_10
REMARK    4  A    between atoms: C_10  and  C_11
REMARK    5  A    between atoms: C_13  and  N_14
REMARK    6  A    between atoms: N_14  and  C_15
REMARK                            x       y       z     vdW  Elec       q    Type
REMARK                         _______ _______ _______ _____ _____    ______ ____
ROOT
ATOM      1  C   UNL     1      47.493   9.018  13.438  0.00  0.00    +0.000 C 
ENDROOT
BRANCH   1   2
ATOM      2  C   UNL     1      46.289   9.179  12.534  0.00  0.00    +0.000 A 
ATOM      3  C   UNL     1      45.466   8.060  12.303  0.00  0.00    +0.000 A 
ATOM      4  C   UNL     1      44.346   8.119  11.456  0.00  0.00    +0.000 A 
ATOM      5  C   UNL     1      44.035   9.341  10.857  0.00  0.00    +0.000 A 
ATOM      6  C   UNL     1      44.822  10.472  11.099  0.00  0.00    +0.000 A 
ATOM      7  C   UNL     1      45.937  10.395  11.938  0.00  0.00    +0.000 A 
ATOM      8 CL   UNL     1      46.832  11.845  12.219  0.00  0.00    +0.000 Cl
BRANCH   4   9
ATOM      9  N   UNL     1      43.533   6.975  11.319  0.00  0.00    +0.000 N 
ATOM     10  H   UNL     1      42.563   7.172  11.555  0.00  0.00    +0.000 HD
BRANCH   9  11
ATOM     11  C   UNL     1      43.902   5.622  11.659  0.00  0.00    +0.000 C 
ATOM     12  C   UNL     1      43.584   4.627  10.522  0.00  0.00    +0.000 C 
ATOM     13  N   UNL     1      42.804   3.799  11.454  0.00  0.00    +0.000 NA
ATOM     14  C   UNL     1      42.822   4.871  12.464  0.00  0.00    +0.000 C 
ATOM     15  H   UNL     1      43.288   2.950  11.748  0.00  0.00    +0.000 HD
ENDBRANCH   9  11
ENDBRANCH   4   9
ENDBRANCH   1   2
BRANCH   1  16
ATOM     16  C   UNL     1      48.476   7.962  12.919  0.00  0.00    +0.000 C 
BRANCH  16  21
ATOM     17  C   UNL     1      47.888   4.763  16.601  0.00  0.00    +0.000 A 
ATOM     18  C   UNL     1      47.524   4.783  15.278  0.00  0.00    +0.000 A 
ATOM     19  N   UNL     1      47.995   5.683  14.390  0.00  0.00    +0.000 NA
ATOM     20  C   UNL     1      48.853   6.608  14.847  0.00  0.00    +0.000 A 
ATOM     21  N   UNL     1      49.382   7.560  13.986  0.00  0.00    +0.000 N 
ATOM     22  N   UNL     1      49.247   6.688  16.126  0.00  0.00    +0.000 NA
ATOM     23  C   UNL     1      48.751   5.763  16.983  0.00  0.00    +0.000 A 
ATOM     24  H   UNL     1      49.723   8.309  14.582  0.00  0.00    +0.000 HD
BRANCH  17  26
ATOM     25  N   UNL     1      47.983   3.744  18.802  0.00  0.00    +0.000 N 
ATOM     26  C   UNL     1      47.386   3.782  17.572  0.00  0.00    +0.000 C 
ATOM     27  O   UNL     1      46.449   3.045  17.298  0.00  0.00    +0.000 OA
ATOM     28  H   UNL     1      47.561   3.124  19.485  0.00  0.00    +0.000 HD
ATOM     29  H   UNL     1      48.575   4.480  19.158  0.00  0.00    +0.000 HD
ENDBRANCH  17  26
ENDBRANCH  16  21
ENDBRANCH   1  16
TORSDOF 6
ENDMDL
MODEL 8
REMARK VINA RESULT:    -6.366      3.994      6.421
REMARK INTER + INTRA:          -9.273
REMARK INTER:                  -8.931
REMARK INTRA:                  -0.343
REMARK UNBOUND:                -0.674
REMARK  Name = 
REMARK  6 active torsions:
REMARK  status: ('A' for Active; 'I' for Inactive)
REMARK    1  A    between atoms: C_2  and  C_4
REMARK    2  A    between atoms: N_8  and  C_9
REMARK    3  A    between atoms: C_9  and  C_10
REMARK    4  A    between atoms: C_10  and  C_11
REMARK    5  A    between atoms: C_13  and  N_14
REMARK    6  A    between atoms: N_14  and  C_15
REMARK                            x       y       z     vdW  Elec       q    Type
REMARK                         _______ _______ _______ _____ _____    ______ ____
ROOT
ATOM      1  C   UNL     1      48.247   2.830  16.788  0.00  0.00    +0.000 C 
ENDROOT
BRANCH   1   2
ATOM      2  C   UNL     1      49.281   3.547  17.631  0.00  0.00    +0.000 A 
ATOM      3  C   UNL     1      48.883   4.682  18.362  0.00  0.00    +0.000 A 
ATOM      4  C   UNL     1      49.788   5.420  19.147  0.00  0.00    +0.000 A 
ATOM      5  C   UNL     1      51.111   4.981  19.217  0.00  0.00    +0.000 A 
ATOM      6  C   UNL     1      51.518   3.836  18.523  0.00  0.00    +0.000 A 
ATOM      7  C   UNL     1      50.609   3.119  17.741  0.00  0.00    +0.000 A 
ATOM      8 CL   UNL     1      51.180   1.695  16.949  0.00  0.00    +0.000 Cl
BRANCH   4   9
ATOM      9  N   UNL     1      49.305   6.510  19.900  0.00  0.00    +0.000 N 
ATOM     10  H   UNL     1      49.891   7.334  19.787  0.00  0.00    +0.000 HD
BRANCH   9  11
ATOM     11  C   UNL     1      48.724   6.443  21.219  0.00  0.00    +0.000 C 
ATOM     12  C   UNL     1      48.926   5.060  21.876  0.00  0.00    +0.000 C 
ATOM     13  N   UNL     1      47.477   4.949  22.104  0.00  0.00    +0.000 NA
ATOM     14  C   UNL     1      47.222   6.096  21.215  0.00  0.00    +0.000 C 
ATOM     15  H   UNL     1      47.202   5.111  23.073  0.00  0.00    +0.000 HD
ENDBRANCH   9  11
ENDBRANCH   4   9
ENDBRANCH   1   2
BRANCH   1  16
ATOM     16  C   UNL     1      47.478   3.786  15.869  0.00  0.00    +0.000 C 
BRANCH  16  21
ATOM     17  C   UNL     1      44.650   5.040  12.051  0.00  0.00    +0.000 A 
ATOM     18  C   UNL     1      45.353   5.742  12.999  0.00  0.00    +0.000 A 
ATOM     19  N   UNL     1      46.252   5.176  13.830  0.00  0.00    +0.000 NA
ATOM     20  C   UNL     1      46.445   3.852  13.719  0.00  0.00    +0.000 A 
ATOM     21  N   UNL     1      47.360   3.206  14.538  0.00  0.00    +0.000 N 
ATOM     22  N   UNL     1      45.787   3.076  12.845  0.00  0.00    +0.000 NA
ATOM     23  C   UNL     1      44.895   3.687  12.029  0.00  0.00    +0.000 A 
ATOM     24  H   UNL     1      47.110   2.221  14.506  0.00  0.00    +0.000 HD
BRANCH  17  26
ATOM     25  N   UNL     1      43.348   6.961  11.342  0.00  0.00    +0.000 N 
ATOM     26  C   UNL     1      43.676   5.650  11.138  0.00  0.00    +0.000 C 
ATOM     27  O   UNL     1      43.197   5.013  10.209  0.00  0.00    +0.000 OA
ATOM     28  H   UNL     1      42.744   7.386  10.647  0.00  0.00    +0.000 HD
ATOM     29  H   UNL     1      43.887   7.588  11.922  0.00  0.00    +0.000 HD
ENDBRANCH  17  26
ENDBRANCH  16  21
ENDBRANCH   1  16
TORSDOF 6
ENDMDL
MODEL 9
REMARK VINA RESULT:    -6.300      3.801      5.496
REMARK INTER + INTRA:          -9.184
REMARK INTER:                  -8.513
REMARK INTRA:                  -0.671
REMARK UNBOUND:                -0.674
REMARK  Name = 
REMARK  6 active torsions:
REMARK  status: ('A' for Active; 'I' for Inactive)
REMARK    1  A    between atoms: C_2  and  C_4
REMARK    2  A    between atoms: N_8  and  C_9
REMARK    3  A    between atoms: C_9  and  C_10
REMARK    4  A    between atoms: C_10  and  C_11
REMARK    5  A    between atoms: C_13  and  N_14
REMARK    6  A    between atoms: N_14  and  C_15
REMARK                            x       y       z     vdW  Elec       q    Type
REMARK                         _______ _______ _______ _____ _____    ______ ____
ROOT
ATOM      1  C   UNL     1      49.541   7.816  14.993  0.00  0.00    +0.000 C 
ENDROOT
BRANCH   1   2
ATOM      2  C   UNL     1      49.191   7.272  16.363  0.00  0.00    +0.000 A 
ATOM      3  C   UNL     1      49.645   5.986  16.712  0.00  0.00    +0.000 A 
ATOM      4  C   UNL     1      49.340   5.398  17.952  0.00  0.00    +0.000 A 
ATOM      5  C   UNL     1      48.590   6.138  18.867  0.00  0.00    +0.000 A 
ATOM      6  C   UNL     1      48.157   7.431  18.551  0.00  0.00    +0.000 A 
ATOM      7  C   UNL     1      48.461   7.998  17.310  0.00  0.00    +0.000 A 
ATOM      8 CL   UNL     1      47.925   9.612  17.013  0.00  0.00    +0.000 Cl
BRANCH   4   9
ATOM      9  N   UNL     1      49.879   4.131  18.257  0.00  0.00    +0.000 N 
ATOM     10  H   UNL     1      50.893   4.122  18.165  0.00  0.00    +0.000 HD
BRANCH   9  11
ATOM     11  C   UNL     1      49.299   2.854  17.919  0.00  0.00    +0.000 C 
ATOM     12  C   UNL     1      50.233   2.007  17.028  0.00  0.00    +0.000 C 
ATOM     13  N   UNL     1      49.160   1.858  16.032  0.00  0.00    +0.000 NA
ATOM     14  C   UNL     1      48.364   2.906  16.694  0.00  0.00    +0.000 C 
ATOM     15  H   UNL     1      48.718   0.939  16.043  0.00  0.00    +0.000 HD
ENDBRANCH   9  11
ENDBRANCH   4   9
ENDBRANCH   1   2
BRANCH   1  16
ATOM     16  C   UNL     1      48.765   7.117  13.871  0.00  0.00    +0.000 C 
BRANCH  16  21
ATOM     17  C   UNL     1      44.716   4.682  12.521  0.00  0.00    +0.000 A 
ATOM     18  C   UNL     1      45.893   4.327  13.133  0.00  0.00    +0.000 A 
ATOM     19  N   UNL     1      46.783   5.221  13.611  0.00  0.00    +0.000 NA
ATOM     20  C   UNL     1      46.491   6.522  13.457  0.00  0.00    +0.000 A 
ATOM     21  N   UNL     1      47.359   7.495  13.931  0.00  0.00    +0.000 N 
ATOM     22  N   UNL     1      45.382   6.968  12.849  0.00  0.00    +0.000 NA
ATOM     23  C   UNL     1      44.516   6.036  12.386  0.00  0.00    +0.000 A 
ATOM     24  H   UNL     1      47.111   8.349  13.438  0.00  0.00    +0.000 HD
BRANCH  17  26
ATOM     25  N   UNL     1      43.887   2.406  12.371  0.00  0.00    +0.000 N 
ATOM     26  C   UNL     1      43.738   3.715  12.006  0.00  0.00    +0.000 C 
ATOM     27  O   UNL     1      42.808   4.075  11.297  0.00  0.00    +0.000 OA
ATOM     28  H   UNL     1      43.150   1.773  12.078  0.00  0.00    +0.000 HD
ATOM     29  H   UNL     1      44.472   2.102  13.135  0.00  0.00    +0.000 HD
ENDBRANCH  17  26
ENDBRANCH  16  21
ENDBRANCH   1  16
TORSDOF 6
ENDMDL
