MODEL 1
REMARK VINA RESULT:    -9.081      0.000      0.000
REMARK INTER + INTRA:         -12.730
REMARK INTER:                 -11.736
REMARK INTRA:                  -0.994
REMARK UNBOUND:                -0.994
REMARK  Name = 
REMARK  5 active torsions:
REMARK  status: ('A' for Active; 'I' for Inactive)
REMARK    1  A    between atoms: C_2  and  C_4
REMARK    2  A    between atoms: N_8  and  C_9
REMARK    3  A    between atoms: C_9  and  C_10
REMARK    4  A    between atoms: C_10  and  C_11
REMARK    5  A    between atoms: C_15  and  C_16
REMARK                            x       y       z     vdW  Elec       q    Type
REMARK                         _______ _______ _______ _____ _____    ______ ____
ROOT
ATOM      1  C   UNL     1      43.233   4.517  11.058  0.00  0.00    +0.000 C 
ENDROOT
BRANCH   1   6
ATOM      2  C   UNL     1      46.474   2.481   7.730  0.00  0.00    +0.000 A 
ATOM      3  C   UNL     1      45.591   1.854   8.601  0.00  0.00    +0.000 A 
ATOM      4  C   UNL     1      44.661   2.627   9.298  0.00  0.00    +0.000 A 
ATOM      5  C   UNL     1      44.646   4.008   9.129  0.00  0.00    +0.000 A 
ATOM      6  N   UNL     1      43.694   4.831   9.715  0.00  0.00    +0.000 N 
ATOM      7  N   UNL     1      45.522   4.631   8.319  0.00  0.00    +0.000 NA
ATOM      8  C   UNL     1      46.417   3.862   7.641  0.00  0.00    +0.000 A 
ATOM      9  H   UNL     1      44.001   5.789   9.560  0.00  0.00    +0.000 HD
BRANCH   2  11
ATOM     10  N   UNL     1      48.521   2.434   6.427  0.00  0.00    +0.000 N 
ATOM     11  C   UNL     1      47.444   1.737   6.905  0.00  0.00    +0.000 C 
ATOM     12  O   UNL     1      47.316   0.538   6.691  0.00  0.00    +0.000 OA
ATOM     13  H   UNL     1      49.235   1.887   5.962  0.00  0.00    +0.000 HD
ATOM     14  H   UNL     1      48.788   3.337   6.790  0.00  0.00    +0.000 HD
ENDBRANCH   2  11
ENDBRANCH   1   6
BRANCH   1  15
ATOM     15  C   UNL     1      43.394   5.729  11.985  0.00  0.00    +0.000 C 
BRANCH  15  16
ATOM     16  C   UNL     1      44.791   5.772  12.558  0.00  0.00    +0.000 A 
ATOM     17  C   UNL     1      45.283   4.712  13.322  0.00  0.00    +0.000 A 
ATOM     18  C   UNL     1      46.598   4.734  13.778  0.00  0.00    +0.000 A 
ATOM     19  C   UNL     1      47.439   5.801  13.449  0.00  0.00    +0.000 A 
ATOM     20  C   UNL     1      46.993   6.862  12.641  0.00  0.00    +0.000 A 
ATOM     21  C   UNL     1      45.647   6.837  12.232  0.00  0.00    +0.000 A 
BRANCH  20  22
ATOM     22  C   UNL     1      47.917   7.908  12.141  0.00  0.00    +0.000 A 
ATOM     23  C   UNL     1      47.529   9.260  12.119  0.00  0.00    +0.000 A 
ATOM     24  C   UNL     1      48.425  10.274  11.769  0.00  0.00    +0.000 A 
ATOM     25  C   UNL     1      49.737   9.957  11.434  0.00  0.00    +0.000 A 
ATOM     26  C   UNL     1      50.142   8.627  11.419  0.00  0.00    +0.000 A 
ATOM     27  C   UNL     1      49.238   7.613  11.758  0.00  0.00    +0.000 A 
ENDBRANCH  20  22
ENDBRANCH  15  16
ENDBRANCH   1  15
TORSDOF 5
ENDMDL
MODEL 2
REMARK VINA RESULT:    -8.848      1.609      3.508
REMARK INTER + INTRA:         -12.428
REMARK INTER:                 -11.616
REMARK INTRA:                  -0.812
REMARK UNBOUND:                -0.994
REMARK  Name = 
REMARK  5 active torsions:
REMARK  status: ('A' for Active; 'I' for Inactive)
REMARK    1  A    between atoms: C_2  and  C_4
REMARK    2  A    between atoms: N_8  and  C_9
REMARK    3  A    between atoms: C_9  and  C_10
REMARK    4  A    between atoms: C_10  and  C_11
REMARK    5  A    between atoms: C_15  and  C_16
REMARK                            x       y       z     vdW  Elec       q    Type
REMARK                         _______ _______ _______ _____ _____    ______ ____
ROOT
ATOM      1  C   UNL     1      43.290   4.351  11.133  0.00  0.00    +0.000 C 
ENDROOT
BRANCH   1   6
ATOM      2  C   UNL     1      46.520   2.478   7.701  0.00  0.00    +0.000 A 
ATOM      3  C   UNL     1      45.707   1.808   8.608  0.00  0.00    +0.000 A 
ATOM      4  C   UNL     1      44.760   2.531   9.334  0.00  0.00    +0.000 A 
ATOM      5  C   UNL     1      44.659   3.908   9.157  0.00  0.00    +0.000 A 
ATOM      6  N   UNL     1      43.683   4.680   9.773  0.00  0.00    +0.000 N 
ATOM      7  N   UNL     1      45.468   4.574   8.311  0.00  0.00    +0.000 NA
ATOM      8  C   UNL     1      46.381   3.852   7.606  0.00  0.00    +0.000 A 
ATOM      9  H   UNL     1      43.930   5.653   9.601  0.00  0.00    +0.000 HD
BRANCH   2  11
ATOM     10  N   UNL     1      48.542   2.528   6.360  0.00  0.00    +0.000 N 
ATOM     11  C   UNL     1      47.501   1.784   6.845  0.00  0.00    +0.000 C 
ATOM     12  O   UNL     1      47.414   0.584   6.613  0.00  0.00    +0.000 OA
ATOM     13  H   UNL     1      49.267   2.015   5.872  0.00  0.00    +0.000 HD
ATOM     14  H   UNL     1      48.783   3.434   6.734  0.00  0.00    +0.000 HD
ENDBRANCH   2  11
ENDBRANCH   1   6
BRANCH   1  15
ATOM     15  C   UNL     1      43.499   5.552  12.065  0.00  0.00    +0.000 C 
BRANCH  15  16
ATOM     16  C   UNL     1      44.972   5.775  12.315  0.00  0.00    +0.000 A 
ATOM     17  C   UNL     1      45.711   6.639  11.503  0.00  0.00    +0.000 A 
ATOM     18  C   UNL     1      47.050   6.891  11.794  0.00  0.00    +0.000 A 
ATOM     19  C   UNL     1      47.649   6.307  12.914  0.00  0.00    +0.000 A 
ATOM     20  C   UNL     1      46.923   5.472  13.780  0.00  0.00    +0.000 A 
ATOM     21  C   UNL     1      45.586   5.196  13.438  0.00  0.00    +0.000 A 
BRANCH  20  22
ATOM     22  C   UNL     1      47.492   4.986  15.060  0.00  0.00    +0.000 A 
ATOM     23  C   UNL     1      47.228   3.681  15.516  0.00  0.00    +0.000 A 
ATOM     24  C   UNL     1      47.852   3.162  16.653  0.00  0.00    +0.000 A 
ATOM     25  C   UNL     1      48.761   3.939  17.363  0.00  0.00    +0.000 A 
ATOM     26  C   UNL     1      49.021   5.243  16.953  0.00  0.00    +0.000 A 
ATOM     27  C   UNL     1      48.384   5.764  15.821  0.00  0.00    +0.000 A 
ENDBRANCH  20  22
ENDBRANCH  15  16
ENDBRANCH   1  15
TORSDOF 5
ENDMDL
MODEL 3
REMARK VINA RESULT:    -8.081      1.316      1.931
REMARK INTER + INTRA:         -11.437
REMARK INTER:                 -11.302
REMARK INTRA:                  -0.135
REMARK UNBOUND:                -0.994
REMARK  Name = 
REMARK  5 active torsions:
REMARK  status: ('A' for Active; 'I' for Inactive)
REMARK    1  A    between atoms: C_2  and  C_4
REMARK    2  A    between atoms: N_8  and  C_9
REMARK    3  A    between atoms: C_9  and  C_10
REMARK    4  A    between atoms: C_10  and  C_11
REMARK    5  A    between atoms: C_15  and  C_16
REMARK                            x       y       z     vdW  Elec       q    Type
REMARK                         _______ _______ _______ _____ _____    ______ ____
ROOT
ATOM      1  C   UNL     1      43.410   4.573  11.177  0.00  0.00    +0.000 C 
ENDROOT
BRANCH   1   6
ATOM      2  C   UNL     1      46.467   2.501   7.701  0.00  0.00    +0.000 A 
ATOM      3  C   UNL     1      45.649   1.883   8.640  0.00  0.00    +0.000 A 
ATOM      4  C   UNL     1      44.753   2.660   9.376  0.00  0.00    +0.000 A 
ATOM      5  C   UNL     1      44.707   4.037   9.177  0.00  0.00    +0.000 A 
ATOM      6  N   UNL     1      43.781   4.860   9.802  0.00  0.00    +0.000 N 
ATOM      7  N   UNL     1      45.521   4.651   8.299  0.00  0.00    +0.000 NA
ATOM      8  C   UNL     1      46.384   3.878   7.584  0.00  0.00    +0.000 A 
ATOM      9  H   UNL     1      44.065   5.818   9.606  0.00  0.00    +0.000 HD
BRANCH   2  11
ATOM     10  N   UNL     1      48.479   2.428   6.346  0.00  0.00    +0.000 N 
ATOM     11  C   UNL     1      47.394   1.750   6.835  0.00  0.00    +0.000 C 
ATOM     12  O   UNL     1      47.228   0.560   6.596  0.00  0.00    +0.000 OA
ATOM     13  H   UNL     1      49.165   1.873   5.850  0.00  0.00    +0.000 HD
ATOM     14  H   UNL     1      48.781   3.314   6.723  0.00  0.00    +0.000 HD
ENDBRANCH   2  11
ENDBRANCH   1   6
BRANCH   1  15
ATOM     15  C   UNL     1      44.589   3.956  11.942  0.00  0.00    +0.000 C 
BRANCH  15  16
ATOM     16  C   UNL     1      45.460   5.042  12.529  0.00  0.00    +0.000 A 
ATOM     17  C   UNL     1      46.563   4.720  13.324  0.00  0.00    +0.000 A 
ATOM     18  C   UNL     1      47.399   5.730  13.794  0.00  0.00    +0.000 A 
ATOM     19  C   UNL     1      47.156   7.063  13.449  0.00  0.00    +0.000 A 
ATOM     20  C   UNL     1      46.085   7.418  12.612  0.00  0.00    +0.000 A 
ATOM     21  C   UNL     1      45.229   6.385  12.189  0.00  0.00    +0.000 A 
BRANCH  20  22
ATOM     22  C   UNL     1      45.917   8.798  12.098  0.00  0.00    +0.000 A 
ATOM     23  C   UNL     1      44.672   9.239  11.613  0.00  0.00    +0.000 A 
ATOM     24  C   UNL     1      44.459  10.569  11.240  0.00  0.00    +0.000 A 
ATOM     25  C   UNL     1      45.492  11.494  11.347  0.00  0.00    +0.000 A 
ATOM     26  C   UNL     1      46.742  11.082  11.797  0.00  0.00    +0.000 A 
ATOM     27  C   UNL     1      46.954   9.746  12.157  0.00  0.00    +0.000 A 
ENDBRANCH  20  22
ENDBRANCH  15  16
ENDBRANCH   1  15
TORSDOF 5
ENDMDL
MODEL 4
REMARK VINA RESULT:    -8.076      2.368      3.234
REMARK INTER + INTRA:         -11.430
REMARK INTER:                 -10.971
REMARK INTRA:                  -0.460
REMARK UNBOUND:                -0.994
REMARK  Name = 
REMARK  5 active torsions:
REMARK  status: ('A' for Active; 'I' for Inactive)
REMARK    1  A    between atoms: C_2  and  C_4
REMARK    2  A    between atoms: N_8  and  C_9
REMARK    3  A    between atoms: C_9  and  C_10
REMARK    4  A    between atoms: C_10  and  C_11
REMARK    5  A    between atoms: C_15  and  C_16
REMARK                            x       y       z     vdW  Elec       q    Type
REMARK                         _______ _______ _______ _____ _____    ______ ____
ROOT
ATOM      1  C   UNL     1      43.465   4.781  11.032  0.00  0.00    +0.000 C 
ENDROOT
BRANCH   1   6
ATOM      2  C   UNL     1      46.516   2.498   7.684  0.00  0.00    +0.000 A 
ATOM      3  C   UNL     1      45.636   1.939   8.604  0.00  0.00    +0.000 A 
ATOM      4  C   UNL     1      44.760   2.773   9.300  0.00  0.00    +0.000 A 
ATOM      5  C   UNL     1      44.796   4.148   9.082  0.00  0.00    +0.000 A 
ATOM      6  N   UNL     1      43.896   5.029   9.666  0.00  0.00    +0.000 N 
ATOM      7  N   UNL     1      45.670   4.705   8.224  0.00  0.00    +0.000 NA
ATOM      8  C   UNL     1      46.512   3.876   7.548  0.00  0.00    +0.000 A 
ATOM      9  H   UNL     1      44.237   5.967   9.467  0.00  0.00    +0.000 HD
BRANCH   2  11
ATOM     10  N   UNL     1      48.522   2.320   6.330  0.00  0.00    +0.000 N 
ATOM     11  C   UNL     1      47.429   1.686   6.859  0.00  0.00    +0.000 C 
ATOM     12  O   UNL     1      47.243   0.488   6.687  0.00  0.00    +0.000 OA
ATOM     13  H   UNL     1      49.198   1.727   5.864  0.00  0.00    +0.000 HD
ATOM     14  H   UNL     1      48.838   3.220   6.657  0.00  0.00    +0.000 HD
ENDBRANCH   2  11
ENDBRANCH   1   6
BRANCH   1  15
ATOM     15  C   UNL     1      44.666   4.763  11.986  0.00  0.00    +0.000 C 
BRANCH  15  16
ATOM     16  C   UNL     1      45.173   6.167  12.222  0.00  0.00    +0.000 A 
ATOM     17  C   UNL     1      46.392   6.388  12.867  0.00  0.00    +0.000 A 
ATOM     18  C   UNL     1      46.879   7.685  13.008  0.00  0.00    +0.000 A 
ATOM     19  C   UNL     1      46.168   8.766  12.479  0.00  0.00    +0.000 A 
ATOM     20  C   UNL     1      44.963   8.577  11.781  0.00  0.00    +0.000 A 
ATOM     21  C   UNL     1      44.469   7.262  11.693  0.00  0.00    +0.000 A 
BRANCH  20  22
ATOM     22  C   UNL     1      44.288   9.687  11.067  0.00  0.00    +0.000 A 
ATOM     23  C   UNL     1      42.961   9.554  10.619  0.00  0.00    +0.000 A 
ATOM     24  C   UNL     1      42.266  10.628  10.056  0.00  0.00    +0.000 A 
ATOM     25  C   UNL     1      42.886  11.867   9.929  0.00  0.00    +0.000 A 
ATOM     26  C   UNL     1      44.207  12.022  10.337  0.00  0.00    +0.000 A 
ATOM     27  C   UNL     1      44.903  10.940  10.889  0.00  0.00    +0.000 A 
ENDBRANCH  20  22
ENDBRANCH  15  16
ENDBRANCH   1  15
TORSDOF 5
ENDMDL
MODEL 5
REMARK VINA RESULT:    -7.893      1.049      1.806
REMARK INTER + INTRA:         -11.194
REMARK INTER:                 -10.398
REMARK INTRA:                  -0.796
REMARK UNBOUND:                -0.994
REMARK  Name = 
REMARK  5 active torsions:
REMARK  status: ('A' for Active; 'I' for Inactive)
REMARK    1  A    between atoms: C_2  and  C_4
REMARK    2  A    between atoms: N_8  and  C_9
REMARK    3  A    between atoms: C_9  and  C_10
REMARK    4  A    between atoms: C_10  and  C_11
REMARK    5  A    between atoms: C_15  and  C_16
REMARK                            x       y       z     vdW  Elec       q    Type
REMARK                         _______ _______ _______ _____ _____    ______ ____
ROOT
ATOM      1  C   UNL     1      43.996   4.888  11.238  0.00  0.00    +0.000 C 
ENDROOT
BRANCH   1   6
ATOM      2  C   UNL     1      46.545   2.398   7.629  0.00  0.00    +0.000 A 
ATOM      3  C   UNL     1      45.793   1.897   8.685  0.00  0.00    +0.000 A 
ATOM      4  C   UNL     1      45.026   2.778   9.451  0.00  0.00    +0.000 A 
ATOM      5  C   UNL     1      45.044   4.139   9.161  0.00  0.00    +0.000 A 
ATOM      6  N   UNL     1      44.240   5.062   9.816  0.00  0.00    +0.000 N 
ATOM      7  N   UNL     1      45.799   4.641   8.166  0.00  0.00    +0.000 NA
ATOM      8  C   UNL     1      46.534   3.767   7.425  0.00  0.00    +0.000 A 
ATOM      9  H   UNL     1      44.559   5.984   9.526  0.00  0.00    +0.000 HD
BRANCH   2  11
ATOM     10  N   UNL     1      48.500   2.045   6.236  0.00  0.00    +0.000 N 
ATOM     11  C   UNL     1      47.330   1.533   6.729  0.00  0.00    +0.000 C 
ATOM     12  O   UNL     1      46.975   0.390   6.467  0.00  0.00    +0.000 OA
ATOM     13  H   UNL     1      49.084   1.401   5.716  0.00  0.00    +0.000 HD
ATOM     14  H   UNL     1      48.943   2.862   6.628  0.00  0.00    +0.000 HD
ENDBRANCH   2  11
ENDBRANCH   1   6
BRANCH   1  15
ATOM     15  C   UNL     1      45.310   4.950  12.027  0.00  0.00    +0.000 C 
BRANCH  15  16
ATOM     16  C   UNL     1      45.780   6.380  12.156  0.00  0.00    +0.000 A 
ATOM     17  C   UNL     1      44.907   7.384  12.581  0.00  0.00    +0.000 A 
ATOM     18  C   UNL     1      45.375   8.681  12.767  0.00  0.00    +0.000 A 
ATOM     19  C   UNL     1      46.726   8.978  12.558  0.00  0.00    +0.000 A 
ATOM     20  C   UNL     1      47.643   7.984  12.177  0.00  0.00    +0.000 A 
ATOM     21  C   UNL     1      47.134   6.692  11.952  0.00  0.00    +0.000 A 
BRANCH  20  22
ATOM     22  C   UNL     1      49.101   8.244  12.120  0.00  0.00    +0.000 A 
ATOM     23  C   UNL     1      49.754   8.915  13.171  0.00  0.00    +0.000 A 
ATOM     24  C   UNL     1      51.144   9.061  13.196  0.00  0.00    +0.000 A 
ATOM     25  C   UNL     1      51.916   8.535  12.167  0.00  0.00    +0.000 A 
ATOM     26  C   UNL     1      51.298   7.891  11.100  0.00  0.00    +0.000 A 
ATOM     27  C   UNL     1      49.904   7.758  11.073  0.00  0.00    +0.000 A 
ENDBRANCH  20  22
ENDBRANCH  15  16
ENDBRANCH   1  15
TORSDOF 5
ENDMDL
MODEL 6
REMARK VINA RESULT:    -7.707      4.109      7.519
REMARK INTER + INTRA:         -10.954
REMARK INTER:                 -10.368
REMARK INTRA:                  -0.586
REMARK UNBOUND:                -0.994
REMARK  Name = 
REMARK  5 active torsions:
REMARK  status: ('A' for Active; 'I' for Inactive)
REMARK    1  A    between atoms: C_2  and  C_4
REMARK    2  A    between atoms: N_8  and  C_9
REMARK    3  A    between atoms: C_9  and  C_10
REMARK    4  A    between atoms: C_10  and  C_11
REMARK    5  A    between atoms: C_15  and  C_16
REMARK                            x       y       z     vdW  Elec       q    Type
REMARK                         _______ _______ _______ _____ _____    ______ ____
ROOT
ATOM      1  C   UNL     1      47.091   6.807  13.007  0.00  0.00    +0.000 C 
ENDROOT
BRANCH   1   6
ATOM      2  C   UNL     1      48.605   3.943  16.910  0.00  0.00    +0.000 A 
ATOM      3  C   UNL     1      48.834   5.292  16.662  0.00  0.00    +0.000 A 
ATOM      4  C   UNL     1      48.161   5.912  15.608  0.00  0.00    +0.000 A 
ATOM      5  C   UNL     1      47.293   5.170  14.811  0.00  0.00    +0.000 A 
ATOM      6  N   UNL     1      46.520   5.736  13.806  0.00  0.00    +0.000 N 
ATOM      7  N   UNL     1      47.094   3.855  15.017  0.00  0.00    +0.000 NA
ATOM      8  C   UNL     1      47.753   3.268  16.053  0.00  0.00    +0.000 A 
ATOM      9  H   UNL     1      46.105   4.963  13.288  0.00  0.00    +0.000 HD
BRANCH   2  11
ATOM     10  N   UNL     1      48.511   3.173  19.209  0.00  0.00    +0.000 N 
ATOM     11  C   UNL     1      49.222   3.225  18.040  0.00  0.00    +0.000 C 
ATOM     12  O   UNL     1      50.305   2.663  17.929  0.00  0.00    +0.000 OA
ATOM     13  H   UNL     1      48.893   2.581  19.937  0.00  0.00    +0.000 HD
ATOM     14  H   UNL     1      47.528   3.395  19.257  0.00  0.00    +0.000 HD
ENDBRANCH   2  11
ENDBRANCH   1   6
BRANCH   1  15
ATOM     15  C   UNL     1      46.048   7.380  12.039  0.00  0.00    +0.000 C 
BRANCH  15  16
ATOM     16  C   UNL     1      45.186   6.274  11.478  0.00  0.00    +0.000 A 
ATOM     17  C   UNL     1      43.818   6.222  11.755  0.00  0.00    +0.000 A 
ATOM     18  C   UNL     1      43.026   5.239  11.168  0.00  0.00    +0.000 A 
ATOM     19  C   UNL     1      43.589   4.321  10.276  0.00  0.00    +0.000 A 
ATOM     20  C   UNL     1      44.951   4.373   9.936  0.00  0.00    +0.000 A 
ATOM     21  C   UNL     1      45.738   5.346  10.579  0.00  0.00    +0.000 A 
BRANCH  20  22
ATOM     22  C   UNL     1      45.525   3.521   8.867  0.00  0.00    +0.000 A 
ATOM     23  C   UNL     1      46.153   4.097   7.747  0.00  0.00    +0.000 A 
ATOM     24  C   UNL     1      46.807   3.316   6.791  0.00  0.00    +0.000 A 
ATOM     25  C   UNL     1      46.850   1.934   6.934  0.00  0.00    +0.000 A 
ATOM     26  C   UNL     1      46.214   1.333   8.016  0.00  0.00    +0.000 A 
ATOM     27  C   UNL     1      45.549   2.118   8.965  0.00  0.00    +0.000 A 
ENDBRANCH  20  22
ENDBRANCH  15  16
ENDBRANCH   1  15
TORSDOF 5
ENDMDL
MODEL 7
REMARK VINA RESULT:    -7.517      5.020      8.306
REMARK INTER + INTRA:         -10.709
REMARK INTER:                 -10.270
REMARK INTRA:                  -0.439
REMARK UNBOUND:                -0.994
REMARK  Name = 
REMARK  5 active torsions:
REMARK  status: ('A' for Active; 'I' for Inactive)
REMARK    1  A    between atoms: C_2  and  C_4
REMARK    2  A    between atoms: N_8  and  C_9
REMARK    3  A    between atoms: C_9  and  C_10
REMARK    4  A    between atoms: C_10  and  C_11
REMARK    5  A    between atoms: C_15  and  C_16
REMARK                            x       y       z     vdW  Elec       q    Type
REMARK                         _______ _______ _______ _____ _____    ______ ____
ROOT
ATOM      1  C   UNL     1      46.995   4.084  13.609  0.00  0.00    +0.000 C 
ENDROOT
BRANCH   1   6
ATOM      2  C   UNL     1      48.766   4.229  18.359  0.00  0.00    +0.000 A 
ATOM      3  C   UNL     1      47.884   5.091  17.718  0.00  0.00    +0.000 A 
ATOM      4  C   UNL     1      47.395   4.747  16.456  0.00  0.00    +0.000 A 
ATOM      5  C   UNL     1      47.813   3.565  15.853  0.00  0.00    +0.000 A 
ATOM      6  N   UNL     1      47.301   3.111  14.644  0.00  0.00    +0.000 N 
ATOM      7  N   UNL     1      48.696   2.741  16.447  0.00  0.00    +0.000 NA
ATOM      8  C   UNL     1      49.158   3.088  17.679  0.00  0.00    +0.000 A 
ATOM      9  H   UNL     1      47.880   2.323  14.360  0.00  0.00    +0.000 HD
BRANCH   2  11
ATOM     10  N   UNL     1      48.546   3.986  20.764  0.00  0.00    +0.000 N 
ATOM     11  C   UNL     1      49.279   4.480  19.718  0.00  0.00    +0.000 C 
ATOM     12  O   UNL     1      50.337   5.069  19.905  0.00  0.00    +0.000 OA
ATOM     13  H   UNL     1      48.969   4.065  21.681  0.00  0.00    +0.000 HD
ATOM     14  H   UNL     1      47.826   3.290  20.641  0.00  0.00    +0.000 HD
ENDBRANCH   2  11
ENDBRANCH   1   6
BRANCH   1  15
ATOM     15  C   UNL     1      45.572   4.632  13.780  0.00  0.00    +0.000 C 
BRANCH  15  16
ATOM     16  C   UNL     1      44.831   4.594  12.464  0.00  0.00    +0.000 A 
ATOM     17  C   UNL     1      43.688   5.371  12.265  0.00  0.00    +0.000 A 
ATOM     18  C   UNL     1      43.061   5.381  11.021  0.00  0.00    +0.000 A 
ATOM     19  C   UNL     1      43.590   4.640   9.961  0.00  0.00    +0.000 A 
ATOM     20  C   UNL     1      44.766   3.885  10.111  0.00  0.00    +0.000 A 
ATOM     21  C   UNL     1      45.353   3.855  11.389  0.00  0.00    +0.000 A 
BRANCH  20  22
ATOM     22  C   UNL     1      45.433   3.236   8.957  0.00  0.00    +0.000 A 
ATOM     23  C   UNL     1      45.987   4.007   7.918  0.00  0.00    +0.000 A 
ATOM     24  C   UNL     1      46.726   3.423   6.886  0.00  0.00    +0.000 A 
ATOM     25  C   UNL     1      46.931   2.048   6.870  0.00  0.00    +0.000 A 
ATOM     26  C   UNL     1      46.373   1.256   7.867  0.00  0.00    +0.000 A 
ATOM     27  C   UNL     1      45.622   1.843   8.893  0.00  0.00    +0.000 A 
ENDBRANCH  20  22
ENDBRANCH  15  16
ENDBRANCH   1  15
TORSDOF 5
ENDMDL
MODEL 8
REMARK VINA RESULT:    -7.201      3.526      7.018
REMARK INTER + INTRA:         -10.299
REMARK INTER:                  -9.636
REMARK INTRA:                  -0.663
REMARK UNBOUND:                -0.994
REMARK  Name = 
REMARK  5 active torsions:
REMARK  status: ('A' for Active; 'I' for Inactive)
REMARK    1  A    between atoms: C_2  and  C_4
REMARK    2  A    between atoms: N_8  and  C_9
REMARK    3  A    between atoms: C_9  and  C_10
REMARK    4  A    between atoms: C_10  and  C_11
REMARK    5  A    between atoms: C_15  and  C_16
REMARK                            x       y       z     vdW  Elec       q    Type
REMARK                         _______ _______ _______ _____ _____    ______ ____
ROOT
ATOM      1  C   UNL     1      45.033   6.862  12.888  0.00  0.00    +0.000 C 
ENDROOT
BRANCH   1   6
ATOM      2  C   UNL     1      49.883   8.322  12.635  0.00  0.00    +0.000 A 
ATOM      3  C   UNL     1      49.188   7.423  11.835  0.00  0.00    +0.000 A 
ATOM      4  C   UNL     1      47.803   7.315  11.980  0.00  0.00    +0.000 A 
ATOM      5  C   UNL     1      47.147   8.088  12.933  0.00  0.00    +0.000 A 
ATOM      6  N   UNL     1      45.766   8.104  13.072  0.00  0.00    +0.000 N 
ATOM      7  N   UNL     1      47.815   8.932  13.741  0.00  0.00    +0.000 NA
ATOM      8  C   UNL     1      49.163   9.030  13.582  0.00  0.00    +0.000 A 
ATOM      9  H   UNL     1      45.565   8.619  13.927  0.00  0.00    +0.000 HD
BRANCH   2  11
ATOM     10  N   UNL     1      52.040   8.756  13.659  0.00  0.00    +0.000 N 
ATOM     11  C   UNL     1      51.335   8.548  12.504  0.00  0.00    +0.000 C 
ATOM     12  O   UNL     1      51.894   8.509  11.416  0.00  0.00    +0.000 OA
ATOM     13  H   UNL     1      53.048   8.794  13.565  0.00  0.00    +0.000 HD
ATOM     14  H   UNL     1      51.665   8.541  14.571  0.00  0.00    +0.000 HD
ENDBRANCH   2  11
ENDBRANCH   1   6
BRANCH   1  15
ATOM     15  C   UNL     1      44.587   6.705  11.429  0.00  0.00    +0.000 C 
BRANCH  15  16
ATOM     16  C   UNL     1      44.450   5.242  11.075  0.00  0.00    +0.000 A 
ATOM     17  C   UNL     1      43.490   4.443  11.701  0.00  0.00    +0.000 A 
ATOM     18  C   UNL     1      43.327   3.117  11.309  0.00  0.00    +0.000 A 
ATOM     19  C   UNL     1      44.100   2.589  10.270  0.00  0.00    +0.000 A 
ATOM     20  C   UNL     1      45.041   3.378   9.585  0.00  0.00    +0.000 A 
ATOM     21  C   UNL     1      45.218   4.700  10.032  0.00  0.00    +0.000 A 
BRANCH  20  22
ATOM     22  C   UNL     1      45.741   2.887   8.374  0.00  0.00    +0.000 A 
ATOM     23  C   UNL     1      46.036   3.760   7.311  0.00  0.00    +0.000 A 
ATOM     24  C   UNL     1      46.803   3.349   6.217  0.00  0.00    +0.000 A 
ATOM     25  C   UNL     1      47.295   2.049   6.162  0.00  0.00    +0.000 A 
ATOM     26  C   UNL     1      46.996   1.156   7.185  0.00  0.00    +0.000 A 
ATOM     27  C   UNL     1      46.217   1.567   8.273  0.00  0.00    +0.000 A 
ENDBRANCH  20  22
ENDBRANCH  15  16
ENDBRANCH   1  15
TORSDOF 5
ENDMDL
MODEL 9
REMARK VINA RESULT:    -6.970      4.924      6.848
REMARK INTER + INTRA:         -10.001
REMARK INTER:                  -9.029
REMARK INTRA:                  -0.972
REMARK UNBOUND:                -0.994
REMARK  Name = 
REMARK  5 active torsions:
REMARK  status: ('A' for Active; 'I' for Inactive)
REMARK    1  A    between atoms: C_2  and  C_4
REMARK    2  A    between atoms: N_8  and  C_9
REMARK    3  A    between atoms: C_9  and  C_10
REMARK    4  A    between atoms: C_10  and  C_11
REMARK    5  A    between atoms: C_15  and  C_16
REMARK                            x       y       z     vdW  Elec       q    Type
REMARK                         _______ _______ _______ _____ _____    ______ ____
ROOT
ATOM      1  C   UNL     1      48.485   6.623  14.548  0.00  0.00    +0.000 C 
ENDROOT
BRANCH   1   6
ATOM      2  C   UNL     1      45.135   3.990  11.799  0.00  0.00    +0.000 A 
ATOM      3  C   UNL     1      45.977   3.558  12.817  0.00  0.00    +0.000 A 
ATOM      4  C   UNL     1      46.686   4.504  13.558  0.00  0.00    +0.000 A 
ATOM      5  C   UNL     1      46.559   5.857  13.255  0.00  0.00    +0.000 A 
ATOM      6  N   UNL     1      47.158   6.859  14.004  0.00  0.00    +0.000 N 
ATOM      7  N   UNL     1      45.777   6.284  12.245  0.00  0.00    +0.000 NA
ATOM      8  C   UNL     1      45.087   5.349  11.537  0.00  0.00    +0.000 A 
ATOM      9  H   UNL     1      47.036   7.725  13.483  0.00  0.00    +0.000 HD
BRANCH   2  11
ATOM     10  N   UNL     1      44.922   2.350  10.023  0.00  0.00    +0.000 N 
ATOM     11  C   UNL     1      44.299   3.066  11.009  0.00  0.00    +0.000 C 
ATOM     12  O   UNL     1      43.108   2.913  11.252  0.00  0.00    +0.000 OA
ATOM     13  H   UNL     1      44.363   1.638   9.569  0.00  0.00    +0.000 HD
ATOM     14  H   UNL     1      45.925   2.260   9.968  0.00  0.00    +0.000 HD
ENDBRANCH   2  11
ENDBRANCH   1   6
BRANCH   1  15
ATOM     15  C   UNL     1      48.477   6.748  16.078  0.00  0.00    +0.000 C 
BRANCH  15  16
ATOM     16  C   UNL     1      48.524   5.380  16.717  0.00  0.00    +0.000 A 
ATOM     17  C   UNL     1      47.354   4.642  16.912  0.00  0.00    +0.000 A 
ATOM     18  C   UNL     1      47.424   3.352  17.433  0.00  0.00    +0.000 A 
ATOM     19  C   UNL     1      48.664   2.781  17.734  0.00  0.00    +0.000 A 
ATOM     20  C   UNL     1      49.864   3.476  17.506  0.00  0.00    +0.000 A 
ATOM     21  C   UNL     1      49.763   4.793  17.022  0.00  0.00    +0.000 A 
BRANCH  20  22
ATOM     22  C   UNL     1      51.187   2.824  17.656  0.00  0.00    +0.000 A 
ATOM     23  C   UNL     1      52.292   3.543  18.148  0.00  0.00    +0.000 A 
ATOM     24  C   UNL     1      53.514   2.918  18.414  0.00  0.00    +0.000 A 
ATOM     25  C   UNL     1      53.658   1.553  18.193  0.00  0.00    +0.000 A 
ATOM     26  C   UNL     1      52.593   0.821  17.681  0.00  0.00    +0.000 A 
ATOM     27  C   UNL     1      51.375   1.452  17.404  0.00  0.00    +0.000 A 
ENDBRANCH  20  22
ENDBRANCH  15  16
ENDBRANCH   1  15
TORSDOF 5
ENDMDL
