MODEL 1
REMARK VINA RESULT:    -7.880      0.000      0.000
REMARK INTER + INTRA:         -14.518
REMARK INTER:                 -12.947
REMARK INTRA:                  -1.571
REMARK UNBOUND:                -1.571
REMARK  Name = 
REMARK  12 active torsions:
REMARK  status: ('A' for Active; 'I' for Inactive)
REMARK    1  A    between atoms: C_1  and  C_2
REMARK    2  A    between atoms: C_2  and  N_3
REMARK    3  A    between atoms: C_2  and  C_20
REMARK    4  A    between atoms: N_3  and  C_4
REMARK    5  A    between atoms: C_4  and  C_5
REMARK    6  A    between atoms: C_9  and  C_10
REMARK    7  A    between atoms: C_10  and  N_11
REMARK    8  A    between atoms: N_11  and  C_12
REMARK    9  A    between atoms: C_12  and  C_13
REMARK   10  A    between atoms: C_23  and  C_24
REMARK   11  A    between atoms: N_26  and  C_27
REMARK   12  A    between atoms: C_27  and  C_28
REMARK                            x       y       z     vdW  Elec       q    Type
REMARK                         _______ _______ _______ _____ _____    ______ ____
ROOT
ATOM      1  C   UNL     1      48.366  10.092  13.533  0.00  0.00    +0.000 C 
ATOM      2  C   UNL     1      48.132   8.760  14.258  0.00  0.00    +0.000 C 
ENDROOT
BRANCH   2   3
ATOM      3  C   UNL     1      47.176   7.885  13.462  0.00  0.00    +0.000 A 
ATOM      4  C   UNL     1      47.337   6.490  13.478  0.00  0.00    +0.000 A 
ATOM      5  C   UNL     1      46.486   5.666  12.736  0.00  0.00    +0.000 A 
ATOM      6  C   UNL     1      45.460   6.225  11.969  0.00  0.00    +0.000 A 
ATOM      7  C   UNL     1      45.252   7.610  12.004  0.00  0.00    +0.000 A 
ATOM      8  C   UNL     1      46.108   8.433  12.733  0.00  0.00    +0.000 A 
BRANCH   6   9
ATOM      9  C   UNL     1      44.616   5.335  11.119  0.00  0.00    +0.000 C 
ATOM     10  O   UNL     1      43.415   5.554  10.987  0.00  0.00    +0.000 OA
ATOM     11  N   UNL     1      45.259   4.261  10.549  0.00  0.00    +0.000 N 
ATOM     12  H   UNL     1      46.243   4.101  10.708  0.00  0.00    +0.000 HD
BRANCH  11  13
ATOM     13  C   UNL     1      44.593   3.322   9.674  0.00  0.00    +0.000 C 
BRANCH  13  14
ATOM     14  C   UNL     1      45.512   2.778   8.604  0.00  0.00    +0.000 A 
ATOM     15  C   UNL     1      46.014   3.628   7.619  0.00  0.00    +0.000 A 
ATOM     16  C   UNL     1      46.860   3.105   6.644  0.00  0.00    +0.000 A 
ATOM     17  C   UNL     1      47.183   1.755   6.677  0.00  0.00    +0.000 A 
ATOM     18  C   UNL     1      46.650   0.979   7.694  0.00  0.00    +0.000 A 
ATOM     19  N   UNL     1      45.830   1.457   8.657  0.00  0.00    +0.000 NA
ENDBRANCH  13  14
ENDBRANCH  11  13
ENDBRANCH   6   9
ENDBRANCH   2   3
BRANCH   2  20
ATOM     20  N   UNL     1      47.673   9.022  15.628  0.00  0.00    +0.000 NA
ATOM     21  H   UNL     1      46.885   8.420  15.855  0.00  0.00    +0.000 HD
BRANCH  20  22
ATOM     22  C   UNL     1      48.730   8.818  16.618  0.00  0.00    +0.000 C 
BRANCH  22  23
ATOM     23  C   UNL     1      48.336   7.772  17.631  0.00  0.00    +0.000 A 
ATOM     24  C   UNL     1      48.192   8.093  18.987  0.00  0.00    +0.000 A 
ATOM     25  C   UNL     1      47.834   7.111  19.909  0.00  0.00    +0.000 A 
ATOM     26  C   UNL     1      47.581   5.808  19.481  0.00  0.00    +0.000 A 
ATOM     27  C   UNL     1      47.673   5.475  18.122  0.00  0.00    +0.000 A 
ATOM     28  C   UNL     1      48.083   6.457  17.212  0.00  0.00    +0.000 A 
BRANCH  27  29
ATOM     29  C   UNL     1      47.258   4.108  17.627  0.00  0.00    +0.000 C 
BRANCH  29  30
ATOM     30  N   UNL     1      48.225   3.116  18.089  0.00  0.00    +0.000 NA
ATOM     31  H   UNL     1      47.716   2.361  18.550  0.00  0.00    +0.000 HD
BRANCH  30  32
ATOM     32  C   UNL     1      49.000   2.537  16.989  0.00  0.00    +0.000 C 
BRANCH  32  33
ATOM     33  C   UNL     1      50.468   2.405  17.357  0.00  0.00    +0.000 A 
ATOM     34  C   UNL     1      51.192   3.518  17.786  0.00  0.00    +0.000 A 
ATOM     35  C   UNL     1      52.532   3.362  18.130  0.00  0.00    +0.000 A 
ATOM     36  C   UNL     1      53.116   2.105  18.036  0.00  0.00    +0.000 A 
ATOM     37  C   UNL     1      52.328   1.051  17.604  0.00  0.00    +0.000 A 
ATOM     38  N   UNL     1      51.025   1.169  17.266  0.00  0.00    +0.000 NA
ENDBRANCH  32  33
ENDBRANCH  30  32
ENDBRANCH  29  30
ENDBRANCH  27  29
ENDBRANCH  22  23
ENDBRANCH  20  22
ENDBRANCH   2  20
TORSDOF 11
ENDMDL
MODEL 2
REMARK VINA RESULT:    -7.831      1.465      2.384
REMARK INTER + INTRA:         -14.437
REMARK INTER:                 -12.218
REMARK INTRA:                  -2.219
REMARK UNBOUND:                -1.571
REMARK  Name = 
REMARK  12 active torsions:
REMARK  status: ('A' for Active; 'I' for Inactive)
REMARK    1  A    between atoms: C_1  and  C_2
REMARK    2  A    between atoms: C_2  and  N_3
REMARK    3  A    between atoms: C_2  and  C_20
REMARK    4  A    between atoms: N_3  and  C_4
REMARK    5  A    between atoms: C_4  and  C_5
REMARK    6  A    between atoms: C_9  and  C_10
REMARK    7  A    between atoms: C_10  and  N_11
REMARK    8  A    between atoms: N_11  and  C_12
REMARK    9  A    between atoms: C_12  and  C_13
REMARK   10  A    between atoms: C_23  and  C_24
REMARK   11  A    between atoms: N_26  and  C_27
REMARK   12  A    between atoms: C_27  and  C_28
REMARK                            x       y       z     vdW  Elec       q    Type
REMARK                         _______ _______ _______ _____ _____    ______ ____
ROOT
ATOM      1  C   UNL     1      48.559   9.888  13.473  0.00  0.00    +0.000 C 
ATOM      2  C   UNL     1      48.179   8.687  14.347  0.00  0.00    +0.000 C 
ENDROOT
BRANCH   2   3
ATOM      3  C   UNL     1      47.358   7.689  13.545  0.00  0.00    +0.000 A 
ATOM      4  C   UNL     1      47.487   6.315  13.809  0.00  0.00    +0.000 A 
ATOM      5  C   UNL     1      46.762   5.376  13.070  0.00  0.00    +0.000 A 
ATOM      6  C   UNL     1      45.896   5.797  12.057  0.00  0.00    +0.000 A 
ATOM      7  C   UNL     1      45.712   7.168  11.835  0.00  0.00    +0.000 A 
ATOM      8  C   UNL     1      46.444   8.104  12.564  0.00  0.00    +0.000 A 
BRANCH   6   9
ATOM      9  C   UNL     1      45.195   4.776  11.225  0.00  0.00    +0.000 C 
ATOM     10  O   UNL     1      44.687   3.787  11.745  0.00  0.00    +0.000 OA
ATOM     11  N   UNL     1      45.202   4.999   9.867  0.00  0.00    +0.000 N 
ATOM     12  H   UNL     1      45.657   5.812   9.477  0.00  0.00    +0.000 HD
BRANCH  11  13
ATOM     13  C   UNL     1      44.541   4.124   8.925  0.00  0.00    +0.000 C 
BRANCH  13  14
ATOM     14  C   UNL     1      45.517   3.273   8.144  0.00  0.00    +0.000 A 
ATOM     15  C   UNL     1      45.735   1.947   8.516  0.00  0.00    +0.000 A 
ATOM     16  C   UNL     1      46.637   1.181   7.782  0.00  0.00    +0.000 A 
ATOM     17  C   UNL     1      47.294   1.754   6.700  0.00  0.00    +0.000 A 
ATOM     18  C   UNL     1      47.014   3.075   6.390  0.00  0.00    +0.000 A 
ATOM     19  N   UNL     1      46.141   3.843   7.080  0.00  0.00    +0.000 NA
ENDBRANCH  13  14
ENDBRANCH  11  13
ENDBRANCH   6   9
ENDBRANCH   2   3
BRANCH   2  20
ATOM     20  N   UNL     1      47.494   9.159  15.557  0.00  0.00    +0.000 NA
ATOM     21  H   UNL     1      47.027   8.383  16.022  0.00  0.00    +0.000 HD
BRANCH  20  22
ATOM     22  C   UNL     1      48.411   9.798  16.501  0.00  0.00    +0.000 C 
BRANCH  22  23
ATOM     23  C   UNL     1      48.611   8.948  17.731  0.00  0.00    +0.000 A 
ATOM     24  C   UNL     1      47.544   8.649  18.588  0.00  0.00    +0.000 A 
ATOM     25  C   UNL     1      47.751   7.867  19.724  0.00  0.00    +0.000 A 
ATOM     26  C   UNL     1      49.017   7.348  19.994  0.00  0.00    +0.000 A 
ATOM     27  C   UNL     1      50.089   7.596  19.125  0.00  0.00    +0.000 A 
ATOM     28  C   UNL     1      49.881   8.424  18.015  0.00  0.00    +0.000 A 
BRANCH  27  29
ATOM     29  C   UNL     1      51.425   6.919  19.327  0.00  0.00    +0.000 C 
BRANCH  29  30
ATOM     30  N   UNL     1      51.253   5.473  19.207  0.00  0.00    +0.000 NA
ATOM     31  H   UNL     1      50.318   5.232  19.539  0.00  0.00    +0.000 HD
BRANCH  30  32
ATOM     32  C   UNL     1      51.377   5.009  17.824  0.00  0.00    +0.000 C 
BRANCH  32  33
ATOM     33  C   UNL     1      50.140   4.245  17.383  0.00  0.00    +0.000 A 
ATOM     34  C   UNL     1      48.914   4.900  17.255  0.00  0.00    +0.000 A 
ATOM     35  C   UNL     1      47.802   4.177  16.835  0.00  0.00    +0.000 A 
ATOM     36  C   UNL     1      47.938   2.823  16.555  0.00  0.00    +0.000 A 
ATOM     37  C   UNL     1      49.189   2.249  16.704  0.00  0.00    +0.000 A 
ATOM     38  N   UNL     1      50.288   2.924  17.106  0.00  0.00    +0.000 NA
ENDBRANCH  32  33
ENDBRANCH  30  32
ENDBRANCH  29  30
ENDBRANCH  27  29
ENDBRANCH  22  23
ENDBRANCH  20  22
ENDBRANCH   2  20
TORSDOF 11
ENDMDL
MODEL 3
REMARK VINA RESULT:    -7.601      2.582      8.671
REMARK INTER + INTRA:         -14.060
REMARK INTER:                 -12.340
REMARK INTRA:                  -1.721
REMARK UNBOUND:                -1.571
REMARK  Name = 
REMARK  12 active torsions:
REMARK  status: ('A' for Active; 'I' for Inactive)
REMARK    1  A    between atoms: C_1  and  C_2
REMARK    2  A    between atoms: C_2  and  N_3
REMARK    3  A    between atoms: C_2  and  C_20
REMARK    4  A    between atoms: N_3  and  C_4
REMARK    5  A    between atoms: C_4  and  C_5
REMARK    6  A    between atoms: C_9  and  C_10
REMARK    7  A    between atoms: C_10  and  N_11
REMARK    8  A    between atoms: N_11  and  C_12
REMARK    9  A    between atoms: C_12  and  C_13
REMARK   10  A    between atoms: C_23  and  C_24
REMARK   11  A    between atoms: N_26  and  C_27
REMARK   12  A    between atoms: C_27  and  C_28
REMARK                            x       y       z     vdW  Elec       q    Type
REMARK                         _______ _______ _______ _____ _____    ______ ____
ROOT
ATOM      1  C   UNL     1      48.085   9.609  11.838  0.00  0.00    +0.000 C 
ATOM      2  C   UNL     1      47.486   9.538  13.249  0.00  0.00    +0.000 C 
ENDROOT
BRANCH   2   3
ATOM      3  C   UNL     1      48.456   8.853  14.200  0.00  0.00    +0.000 A 
ATOM      4  C   UNL     1      49.636   8.283  13.694  0.00  0.00    +0.000 A 
ATOM      5  C   UNL     1      50.531   7.627  14.543  0.00  0.00    +0.000 A 
ATOM      6  C   UNL     1      50.262   7.534  15.912  0.00  0.00    +0.000 A 
ATOM      7  C   UNL     1      49.121   8.160  16.432  0.00  0.00    +0.000 A 
ATOM      8  C   UNL     1      48.221   8.803  15.583  0.00  0.00    +0.000 A 
BRANCH   6   9
ATOM      9  C   UNL     1      51.187   6.758  16.787  0.00  0.00    +0.000 C 
ATOM     10  O   UNL     1      52.400   6.791  16.597  0.00  0.00    +0.000 OA
ATOM     11  N   UNL     1      50.593   5.994  17.764  0.00  0.00    +0.000 N 
ATOM     12  H   UNL     1      49.588   5.973  17.867  0.00  0.00    +0.000 HD
BRANCH  11  13
ATOM     13  C   UNL     1      51.348   5.209  18.715  0.00  0.00    +0.000 C 
BRANCH  13  14
ATOM     14  C   UNL     1      51.529   3.776  18.268  0.00  0.00    +0.000 A 
ATOM     15  C   UNL     1      50.492   3.116  17.609  0.00  0.00    +0.000 A 
ATOM     16  C   UNL     1      50.681   1.797  17.206  0.00  0.00    +0.000 A 
ATOM     17  C   UNL     1      51.894   1.173  17.466  0.00  0.00    +0.000 A 
ATOM     18  C   UNL     1      52.878   1.901  18.117  0.00  0.00    +0.000 A 
ATOM     19  N   UNL     1      52.727   3.184  18.517  0.00  0.00    +0.000 NA
ENDBRANCH  13  14
ENDBRANCH  11  13
ENDBRANCH   6   9
ENDBRANCH   2   3
BRANCH   2  20
ATOM     20  N   UNL     1      46.173   8.884  13.191  0.00  0.00    +0.000 NA
ATOM     21  H   UNL     1      45.432   9.582  13.200  0.00  0.00    +0.000 HD
BRANCH  20  22
ATOM     22  C   UNL     1      46.021   8.044  12.004  0.00  0.00    +0.000 C 
BRANCH  22  23
ATOM     23  C   UNL     1      45.992   6.581  12.369  0.00  0.00    +0.000 A 
ATOM     24  C   UNL     1      46.777   6.078  13.414  0.00  0.00    +0.000 A 
ATOM     25  C   UNL     1      46.742   4.721  13.732  0.00  0.00    +0.000 A 
ATOM     26  C   UNL     1      45.897   3.860  13.031  0.00  0.00    +0.000 A 
ATOM     27  C   UNL     1      45.068   4.350  12.011  0.00  0.00    +0.000 A 
ATOM     28  C   UNL     1      45.149   5.705  11.668  0.00  0.00    +0.000 A 
BRANCH  27  29
ATOM     29  C   UNL     1      44.042   3.459  11.349  0.00  0.00    +0.000 C 
BRANCH  29  30
ATOM     30  N   UNL     1      44.729   2.385  10.635  0.00  0.00    +0.000 NA
ATOM     31  H   UNL     1      44.512   1.501  11.097  0.00  0.00    +0.000 HD
BRANCH  30  32
ATOM     32  C   UNL     1      44.305   2.284   9.237  0.00  0.00    +0.000 C 
BRANCH  32  33
ATOM     33  C   UNL     1      45.497   2.277   8.296  0.00  0.00    +0.000 A 
ATOM     34  C   UNL     1      45.835   3.424   7.575  0.00  0.00    +0.000 A 
ATOM     35  C   UNL     1      46.942   3.392   6.732  0.00  0.00    +0.000 A 
ATOM     36  C   UNL     1      47.682   2.220   6.628  0.00  0.00    +0.000 A 
ATOM     37  C   UNL     1      47.283   1.127   7.378  0.00  0.00    +0.000 A 
ATOM     38  N   UNL     1      46.216   1.128   8.208  0.00  0.00    +0.000 NA
ENDBRANCH  32  33
ENDBRANCH  30  32
ENDBRANCH  29  30
ENDBRANCH  27  29
ENDBRANCH  22  23
ENDBRANCH  20  22
ENDBRANCH   2  20
TORSDOF 11
ENDMDL
MODEL 4
REMARK VINA RESULT:    -7.312      1.760      2.670
REMARK INTER + INTRA:         -13.584
REMARK INTER:                 -11.763
REMARK INTRA:                  -1.822
REMARK UNBOUND:                -1.571
REMARK  Name = 
REMARK  12 active torsions:
REMARK  status: ('A' for Active; 'I' for Inactive)
REMARK    1  A    between atoms: C_1  and  C_2
REMARK    2  A    between atoms: C_2  and  N_3
REMARK    3  A    between atoms: C_2  and  C_20
REMARK    4  A    between atoms: N_3  and  C_4
REMARK    5  A    between atoms: C_4  and  C_5
REMARK    6  A    between atoms: C_9  and  C_10
REMARK    7  A    between atoms: C_10  and  N_11
REMARK    8  A    between atoms: N_11  and  C_12
REMARK    9  A    between atoms: C_12  and  C_13
REMARK   10  A    between atoms: C_23  and  C_24
REMARK   11  A    between atoms: N_26  and  C_27
REMARK   12  A    between atoms: C_27  and  C_28
REMARK                            x       y       z     vdW  Elec       q    Type
REMARK                         _______ _______ _______ _____ _____    ______ ____
ROOT
ATOM      1  C   UNL     1      49.636   8.133  15.071  0.00  0.00    +0.000 C 
ATOM      2  C   UNL     1      48.886   6.888  15.563  0.00  0.00    +0.000 C 
ENDROOT
BRANCH   2   3
ATOM      3  C   UNL     1      47.972   6.356  14.470  0.00  0.00    +0.000 A 
ATOM      4  C   UNL     1      47.826   7.081  13.276  0.00  0.00    +0.000 A 
ATOM      5  C   UNL     1      46.974   6.626  12.266  0.00  0.00    +0.000 A 
ATOM      6  C   UNL     1      46.258   5.437  12.433  0.00  0.00    +0.000 A 
ATOM      7  C   UNL     1      46.453   4.675  13.593  0.00  0.00    +0.000 A 
ATOM      8  C   UNL     1      47.293   5.135  14.606  0.00  0.00    +0.000 A 
BRANCH   6   9
ATOM      9  C   UNL     1      45.292   5.012  11.380  0.00  0.00    +0.000 C 
ATOM     10  O   UNL     1      44.312   5.704  11.114  0.00  0.00    +0.000 OA
ATOM     11  N   UNL     1      45.550   3.803  10.778  0.00  0.00    +0.000 N 
ATOM     12  H   UNL     1      46.352   3.250  11.047  0.00  0.00    +0.000 HD
BRANCH  11  13
ATOM     13  C   UNL     1      44.730   3.262   9.717  0.00  0.00    +0.000 C 
BRANCH  13  14
ATOM     14  C   UNL     1      45.551   2.743   8.559  0.00  0.00    +0.000 A 
ATOM     15  C   UNL     1      45.858   3.585   7.491  0.00  0.00    +0.000 A 
ATOM     16  C   UNL     1      46.616   3.087   6.435  0.00  0.00    +0.000 A 
ATOM     17  C   UNL     1      47.048   1.767   6.472  0.00  0.00    +0.000 A 
ATOM     18  C   UNL     1      46.709   0.998   7.573  0.00  0.00    +0.000 A 
ATOM     19  N   UNL     1      45.978   1.454   8.616  0.00  0.00    +0.000 NA
ENDBRANCH  13  14
ENDBRANCH  11  13
ENDBRANCH   6   9
ENDBRANCH   2   3
BRANCH   2  20
ATOM     20  N   UNL     1      48.176   7.204  16.809  0.00  0.00    +0.000 NA
ATOM     21  H   UNL     1      48.523   6.621  17.568  0.00  0.00    +0.000 HD
BRANCH  20  22
ATOM     22  C   UNL     1      48.313   8.610  17.186  0.00  0.00    +0.000 C 
BRANCH  22  23
ATOM     23  C   UNL     1      47.864   8.841  18.608  0.00  0.00    +0.000 A 
ATOM     24  C   UNL     1      47.357  10.081  19.016  0.00  0.00    +0.000 A 
ATOM     25  C   UNL     1      46.954  10.277  20.336  0.00  0.00    +0.000 A 
ATOM     26  C   UNL     1      47.020   9.226  21.251  0.00  0.00    +0.000 A 
ATOM     27  C   UNL     1      47.481   7.962  20.853  0.00  0.00    +0.000 A 
ATOM     28  C   UNL     1      47.930   7.792  19.537  0.00  0.00    +0.000 A 
BRANCH  27  29
ATOM     29  C   UNL     1      47.417   6.780  21.792  0.00  0.00    +0.000 C 
BRANCH  29  30
ATOM     30  N   UNL     1      47.391   5.547  21.010  0.00  0.00    +0.000 NA
ATOM     31  H   UNL     1      47.309   5.794  20.022  0.00  0.00    +0.000 HD
BRANCH  30  32
ATOM     32  C   UNL     1      48.609   4.752  21.180  0.00  0.00    +0.000 C 
BRANCH  32  33
ATOM     33  C   UNL     1      49.292   4.494  19.847  0.00  0.00    +0.000 A 
ATOM     34  C   UNL     1      48.567   3.983  18.769  0.00  0.00    +0.000 A 
ATOM     35  C   UNL     1      49.217   3.772  17.557  0.00  0.00    +0.000 A 
ATOM     36  C   UNL     1      50.569   4.072  17.450  0.00  0.00    +0.000 A 
ATOM     37  C   UNL     1      51.215   4.577  18.565  0.00  0.00    +0.000 A 
ATOM     38  N   UNL     1      50.612   4.797  19.754  0.00  0.00    +0.000 NA
ENDBRANCH  32  33
ENDBRANCH  30  32
ENDBRANCH  29  30
ENDBRANCH  27  29
ENDBRANCH  22  23
ENDBRANCH  20  22
ENDBRANCH   2  20
TORSDOF 11
ENDMDL
MODEL 5
REMARK VINA RESULT:    -7.264      1.666      3.730
REMARK INTER + INTRA:         -13.505
REMARK INTER:                 -11.519
REMARK INTRA:                  -1.986
REMARK UNBOUND:                -1.571
REMARK  Name = 
REMARK  12 active torsions:
REMARK  status: ('A' for Active; 'I' for Inactive)
REMARK    1  A    between atoms: C_1  and  C_2
REMARK    2  A    between atoms: C_2  and  N_3
REMARK    3  A    between atoms: C_2  and  C_20
REMARK    4  A    between atoms: N_3  and  C_4
REMARK    5  A    between atoms: C_4  and  C_5
REMARK    6  A    between atoms: C_9  and  C_10
REMARK    7  A    between atoms: C_10  and  N_11
REMARK    8  A    between atoms: N_11  and  C_12
REMARK    9  A    between atoms: C_12  and  C_13
REMARK   10  A    between atoms: C_23  and  C_24
REMARK   11  A    between atoms: N_26  and  C_27
REMARK   12  A    between atoms: C_27  and  C_28
REMARK                            x       y       z     vdW  Elec       q    Type
REMARK                         _______ _______ _______ _____ _____    ______ ____
ROOT
ATOM      1  C   UNL     1      48.574   8.421  15.877  0.00  0.00    +0.000 C 
ATOM      2  C   UNL     1      49.218   8.039  14.537  0.00  0.00    +0.000 C 
ENDROOT
BRANCH   2   3
ATOM      3  C   UNL     1      48.248   7.218  13.701  0.00  0.00    +0.000 A 
ATOM      4  C   UNL     1      47.672   6.059  14.248  0.00  0.00    +0.000 A 
ATOM      5  C   UNL     1      46.797   5.274  13.492  0.00  0.00    +0.000 A 
ATOM      6  C   UNL     1      46.482   5.637  12.179  0.00  0.00    +0.000 A 
ATOM      7  C   UNL     1      47.000   6.828  11.653  0.00  0.00    +0.000 A 
ATOM      8  C   UNL     1      47.883   7.605  12.402  0.00  0.00    +0.000 A 
BRANCH   6   9
ATOM      9  C   UNL     1      45.613   4.743  11.362  0.00  0.00    +0.000 C 
ATOM     10  O   UNL     1      45.013   3.807  11.885  0.00  0.00    +0.000 OA
ATOM     11  N   UNL     1      45.572   5.011  10.014  0.00  0.00    +0.000 N 
ATOM     12  H   UNL     1      46.105   5.773   9.619  0.00  0.00    +0.000 HD
BRANCH  11  13
ATOM     13  C   UNL     1      44.754   4.259   9.088  0.00  0.00    +0.000 C 
BRANCH  13  14
ATOM     14  C   UNL     1      45.558   3.261   8.284  0.00  0.00    +0.000 A 
ATOM     15  C   UNL     1      46.258   3.682   7.154  0.00  0.00    +0.000 A 
ATOM     16  C   UNL     1      46.993   2.747   6.430  0.00  0.00    +0.000 A 
ATOM     17  C   UNL     1      47.012   1.423   6.851  0.00  0.00    +0.000 A 
ATOM     18  C   UNL     1      46.297   1.088   7.989  0.00  0.00    +0.000 A 
ATOM     19  N   UNL     1      45.579   1.973   8.717  0.00  0.00    +0.000 NA
ENDBRANCH  13  14
ENDBRANCH  11  13
ENDBRANCH   6   9
ENDBRANCH   2   3
BRANCH   2  20
ATOM     20  N   UNL     1      50.493   7.355  14.784  0.00  0.00    +0.000 NA
ATOM     21  H   UNL     1      51.221   7.744  14.189  0.00  0.00    +0.000 HD
BRANCH  20  22
ATOM     22  C   UNL     1      50.916   7.452  16.181  0.00  0.00    +0.000 C 
BRANCH  22  23
ATOM     23  C   UNL     1      51.159   6.087  16.775  0.00  0.00    +0.000 A 
ATOM     24  C   UNL     1      52.446   5.671  17.136  0.00  0.00    +0.000 A 
ATOM     25  C   UNL     1      52.651   4.402  17.677  0.00  0.00    +0.000 A 
ATOM     26  C   UNL     1      51.567   3.551  17.894  0.00  0.00    +0.000 A 
ATOM     27  C   UNL     1      50.264   3.964  17.582  0.00  0.00    +0.000 A 
ATOM     28  C   UNL     1      50.076   5.220  16.993  0.00  0.00    +0.000 A 
BRANCH  27  29
ATOM     29  C   UNL     1      49.070   3.112  17.950  0.00  0.00    +0.000 C 
BRANCH  29  30
ATOM     30  N   UNL     1      48.079   3.944  18.628  0.00  0.00    +0.000 NA
ATOM     31  H   UNL     1      47.220   3.401  18.732  0.00  0.00    +0.000 HD
BRANCH  30  32
ATOM     32  C   UNL     1      48.518   4.360  19.962  0.00  0.00    +0.000 C 
BRANCH  32  33
ATOM     33  C   UNL     1      48.204   5.825  20.215  0.00  0.00    +0.000 A 
ATOM     34  C   UNL     1      47.739   6.637  19.180  0.00  0.00    +0.000 A 
ATOM     35  C   UNL     1      47.445   7.971  19.447  0.00  0.00    +0.000 A 
ATOM     36  C   UNL     1      47.623   8.462  20.734  0.00  0.00    +0.000 A 
ATOM     37  C   UNL     1      48.086   7.590  21.706  0.00  0.00    +0.000 A 
ATOM     38  N   UNL     1      48.376   6.290  21.480  0.00  0.00    +0.000 NA
ENDBRANCH  32  33
ENDBRANCH  30  32
ENDBRANCH  29  30
ENDBRANCH  27  29
ENDBRANCH  22  23
ENDBRANCH  20  22
ENDBRANCH   2  20
TORSDOF 11
ENDMDL
MODEL 6
REMARK VINA RESULT:    -7.163      4.946      8.189
REMARK INTER + INTRA:         -13.340
REMARK INTER:                 -11.851
REMARK INTRA:                  -1.489
REMARK UNBOUND:                -1.571
REMARK  Name = 
REMARK  12 active torsions:
REMARK  status: ('A' for Active; 'I' for Inactive)
REMARK    1  A    between atoms: C_1  and  C_2
REMARK    2  A    between atoms: C_2  and  N_3
REMARK    3  A    between atoms: C_2  and  C_20
REMARK    4  A    between atoms: N_3  and  C_4
REMARK    5  A    between atoms: C_4  and  C_5
REMARK    6  A    between atoms: C_9  and  C_10
REMARK    7  A    between atoms: C_10  and  N_11
REMARK    8  A    between atoms: N_11  and  C_12
REMARK    9  A    between atoms: C_12  and  C_13
REMARK   10  A    between atoms: C_23  and  C_24
REMARK   11  A    between atoms: N_26  and  C_27
REMARK   12  A    between atoms: C_27  and  C_28
REMARK                            x       y       z     vdW  Elec       q    Type
REMARK                         _______ _______ _______ _____ _____    ______ ____
ROOT
ATOM      1  C   UNL     1      46.020  11.021  11.385  0.00  0.00    +0.000 C 
ATOM      2  C   UNL     1      46.508   9.740  12.074  0.00  0.00    +0.000 C 
ENDROOT
BRANCH   2   3
ATOM      3  C   UNL     1      47.985   9.515  11.785  0.00  0.00    +0.000 A 
ATOM      4  C   UNL     1      48.494   8.206  11.760  0.00  0.00    +0.000 A 
ATOM      5  C   UNL     1      49.851   7.974  11.521  0.00  0.00    +0.000 A 
ATOM      6  C   UNL     1      50.719   9.047  11.301  0.00  0.00    +0.000 A 
ATOM      7  C   UNL     1      50.205  10.349  11.257  0.00  0.00    +0.000 A 
ATOM      8  C   UNL     1      48.853  10.583  11.508  0.00  0.00    +0.000 A 
BRANCH   6   9
ATOM      9  C   UNL     1      52.177   8.783  11.131  0.00  0.00    +0.000 C 
ATOM     10  O   UNL     1      52.984   9.710  11.133  0.00  0.00    +0.000 OA
ATOM     11  N   UNL     1      52.533   7.470  10.933  0.00  0.00    +0.000 N 
ATOM     12  H   UNL     1      51.834   6.741  10.909  0.00  0.00    +0.000 HD
BRANCH  11  13
ATOM     13  C   UNL     1      53.906   7.041  10.783  0.00  0.00    +0.000 C 
BRANCH  13  14
ATOM     14  C   UNL     1      54.233   6.634   9.364  0.00  0.00    +0.000 A 
ATOM     15  C   UNL     1      53.960   5.337   8.933  0.00  0.00    +0.000 A 
ATOM     16  C   UNL     1      54.269   4.983   7.622  0.00  0.00    +0.000 A 
ATOM     17  C   UNL     1      54.837   5.929   6.778  0.00  0.00    +0.000 A 
ATOM     18  C   UNL     1      55.068   7.199   7.281  0.00  0.00    +0.000 A 
ATOM     19  N   UNL     1      54.776   7.575   8.547  0.00  0.00    +0.000 NA
ENDBRANCH  13  14
ENDBRANCH  11  13
ENDBRANCH   6   9
ENDBRANCH   2   3
BRANCH   2  20
ATOM     20  N   UNL     1      45.661   8.612  11.668  0.00  0.00    +0.000 NA
ATOM     21  H   UNL     1      46.208   7.933  11.143  0.00  0.00    +0.000 HD
BRANCH  20  22
ATOM     22  C   UNL     1      45.040   7.943  12.811  0.00  0.00    +0.000 C 
BRANCH  22  23
ATOM     23  C   UNL     1      45.213   6.447  12.729  0.00  0.00    +0.000 A 
ATOM     24  C   UNL     1      46.214   5.792  13.458  0.00  0.00    +0.000 A 
ATOM     25  C   UNL     1      46.363   4.409  13.363  0.00  0.00    +0.000 A 
ATOM     26  C   UNL     1      45.492   3.664  12.567  0.00  0.00    +0.000 A 
ATOM     27  C   UNL     1      44.454   4.294  11.865  0.00  0.00    +0.000 A 
ATOM     28  C   UNL     1      44.345   5.688  11.928  0.00  0.00    +0.000 A 
BRANCH  27  29
ATOM     29  C   UNL     1      43.415   3.485  11.122  0.00  0.00    +0.000 C 
BRANCH  29  30
ATOM     30  N   UNL     1      43.856   3.290   9.743  0.00  0.00    +0.000 NA
ATOM     31  H   UNL     1      44.473   4.063   9.490  0.00  0.00    +0.000 HD
BRANCH  30  32
ATOM     32  C   UNL     1      44.597   2.040   9.565  0.00  0.00    +0.000 C 
BRANCH  32  33
ATOM     33  C   UNL     1      45.615   2.155   8.443  0.00  0.00    +0.000 A 
ATOM     34  C   UNL     1      45.779   3.360   7.759  0.00  0.00    +0.000 A 
ATOM     35  C   UNL     1      46.731   3.439   6.746  0.00  0.00    +0.000 A 
ATOM     36  C   UNL     1      47.491   2.318   6.440  0.00  0.00    +0.000 A 
ATOM     37  C   UNL     1      47.269   1.161   7.167  0.00  0.00    +0.000 A 
ATOM     38  N   UNL     1      46.357   1.053   8.158  0.00  0.00    +0.000 NA
ENDBRANCH  32  33
ENDBRANCH  30  32
ENDBRANCH  29  30
ENDBRANCH  27  29
ENDBRANCH  22  23
ENDBRANCH  20  22
ENDBRANCH   2  20
TORSDOF 11
ENDMDL
MODEL 7
REMARK VINA RESULT:    -7.121      1.827      3.126
REMARK INTER + INTRA:         -13.271
REMARK INTER:                 -11.979
REMARK INTRA:                  -1.291
REMARK UNBOUND:                -1.571
REMARK  Name = 
REMARK  12 active torsions:
REMARK  status: ('A' for Active; 'I' for Inactive)
REMARK    1  A    between atoms: C_1  and  C_2
REMARK    2  A    between atoms: C_2  and  N_3
REMARK    3  A    between atoms: C_2  and  C_20
REMARK    4  A    between atoms: N_3  and  C_4
REMARK    5  A    between atoms: C_4  and  C_5
REMARK    6  A    between atoms: C_9  and  C_10
REMARK    7  A    between atoms: C_10  and  N_11
REMARK    8  A    between atoms: N_11  and  C_12
REMARK    9  A    between atoms: C_12  and  C_13
REMARK   10  A    between atoms: C_23  and  C_24
REMARK   11  A    between atoms: N_26  and  C_27
REMARK   12  A    between atoms: C_27  and  C_28
REMARK                            x       y       z     vdW  Elec       q    Type
REMARK                         _______ _______ _______ _____ _____    ______ ____
ROOT
ATOM      1  C   UNL     1      49.889   8.000  14.917  0.00  0.00    +0.000 C 
ATOM      2  C   UNL     1      48.392   8.315  15.036  0.00  0.00    +0.000 C 
ENDROOT
BRANCH   2   3
ATOM      3  C   UNL     1      47.595   7.476  14.049  0.00  0.00    +0.000 A 
ATOM      4  C   UNL     1      46.707   8.107  13.162  0.00  0.00    +0.000 A 
ATOM      5  C   UNL     1      45.945   7.356  12.263  0.00  0.00    +0.000 A 
ATOM      6  C   UNL     1      46.063   5.964  12.233  0.00  0.00    +0.000 A 
ATOM      7  C   UNL     1      46.997   5.336  13.067  0.00  0.00    +0.000 A 
ATOM      8  C   UNL     1      47.748   6.082  13.974  0.00  0.00    +0.000 A 
BRANCH   6   9
ATOM      9  C   UNL     1      45.181   5.175  11.325  0.00  0.00    +0.000 C 
ATOM     10  O   UNL     1      44.248   4.516  11.776  0.00  0.00    +0.000 OA
ATOM     11  N   UNL     1      45.510   5.207   9.990  0.00  0.00    +0.000 N 
ATOM     12  H   UNL     1      46.304   5.739   9.663  0.00  0.00    +0.000 HD
BRANCH  11  13
ATOM     13  C   UNL     1      44.740   4.524   8.975  0.00  0.00    +0.000 C 
BRANCH  13  14
ATOM     14  C   UNL     1      45.551   3.485   8.234  0.00  0.00    +0.000 A 
ATOM     15  C   UNL     1      45.597   2.173   8.704  0.00  0.00    +0.000 A 
ATOM     16  C   UNL     1      46.350   1.233   8.005  0.00  0.00    +0.000 A 
ATOM     17  C   UNL     1      47.032   1.623   6.860  0.00  0.00    +0.000 A 
ATOM     18  C   UNL     1      46.928   2.943   6.454  0.00  0.00    +0.000 A 
ATOM     19  N   UNL     1      46.202   3.879   7.107  0.00  0.00    +0.000 NA
ENDBRANCH  13  14
ENDBRANCH  11  13
ENDBRANCH   6   9
ENDBRANCH   2   3
BRANCH   2  20
ATOM     20  N   UNL     1      48.182   9.759  14.870  0.00  0.00    +0.000 NA
ATOM     21  H   UNL     1      47.197   9.987  14.991  0.00  0.00    +0.000 HD
BRANCH  20  22
ATOM     22  C   UNL     1      48.973  10.549  15.813  0.00  0.00    +0.000 C 
BRANCH  22  23
ATOM     23  C   UNL     1      48.306  10.616  17.164  0.00  0.00    +0.000 A 
ATOM     24  C   UNL     1      47.777  11.817  17.654  0.00  0.00    +0.000 A 
ATOM     25  C   UNL     1      47.171  11.861  18.909  0.00  0.00    +0.000 A 
ATOM     26  C   UNL     1      47.056  10.698  19.670  0.00  0.00    +0.000 A 
ATOM     27  C   UNL     1      47.537   9.475  19.181  0.00  0.00    +0.000 A 
ATOM     28  C   UNL     1      48.189   9.454  17.941  0.00  0.00    +0.000 A 
BRANCH  27  29
ATOM     29  C   UNL     1      47.286   8.185  19.928  0.00  0.00    +0.000 C 
BRANCH  29  30
ATOM     30  N   UNL     1      47.322   7.070  18.986  0.00  0.00    +0.000 NA
ATOM     31  H   UNL     1      47.940   7.321  18.214  0.00  0.00    +0.000 HD
BRANCH  30  32
ATOM     32  C   UNL     1      47.832   5.840  19.596  0.00  0.00    +0.000 C 
BRANCH  32  33
ATOM     33  C   UNL     1      48.032   4.749  18.558  0.00  0.00    +0.000 A 
ATOM     34  C   UNL     1      49.229   4.034  18.506  0.00  0.00    +0.000 A 
ATOM     35  C   UNL     1      49.377   3.030  17.553  0.00  0.00    +0.000 A 
ATOM     36  C   UNL     1      48.331   2.766  16.678  0.00  0.00    +0.000 A 
ATOM     37  C   UNL     1      47.175   3.518  16.796  0.00  0.00    +0.000 A 
ATOM     38  N   UNL     1      47.000   4.496  17.712  0.00  0.00    +0.000 NA
ENDBRANCH  32  33
ENDBRANCH  30  32
ENDBRANCH  29  30
ENDBRANCH  27  29
ENDBRANCH  22  23
ENDBRANCH  20  22
ENDBRANCH   2  20
TORSDOF 11
ENDMDL
MODEL 8
REMARK VINA RESULT:    -6.896      3.295      9.280
REMARK INTER + INTRA:         -12.901
REMARK INTER:                 -11.319
REMARK INTRA:                  -1.582
REMARK UNBOUND:                -1.571
REMARK  Name = 
REMARK  12 active torsions:
REMARK  status: ('A' for Active; 'I' for Inactive)
REMARK    1  A    between atoms: C_1  and  C_2
REMARK    2  A    between atoms: C_2  and  N_3
REMARK    3  A    between atoms: C_2  and  C_20
REMARK    4  A    between atoms: N_3  and  C_4
REMARK    5  A    between atoms: C_4  and  C_5
REMARK    6  A    between atoms: C_9  and  C_10
REMARK    7  A    between atoms: C_10  and  N_11
REMARK    8  A    between atoms: N_11  and  C_12
REMARK    9  A    between atoms: C_12  and  C_13
REMARK   10  A    between atoms: C_23  and  C_24
REMARK   11  A    between atoms: N_26  and  C_27
REMARK   12  A    between atoms: C_27  and  C_28
REMARK                            x       y       z     vdW  Elec       q    Type
REMARK                         _______ _______ _______ _____ _____    ______ ____
ROOT
ATOM      1  C   UNL     1      51.275   8.448  11.744  0.00  0.00    +0.000 C 
ATOM      2  C   UNL     1      49.797   8.697  12.074  0.00  0.00    +0.000 C 
ENDROOT
BRANCH   2   3
ATOM      3  C   UNL     1      49.595   8.748  13.581  0.00  0.00    +0.000 A 
ATOM      4  C   UNL     1      50.272   7.830  14.402  0.00  0.00    +0.000 A 
ATOM      5  C   UNL     1      50.085   7.841  15.787  0.00  0.00    +0.000 A 
ATOM      6  C   UNL     1      49.220   8.770  16.372  0.00  0.00    +0.000 A 
ATOM      7  C   UNL     1      48.596   9.731  15.566  0.00  0.00    +0.000 A 
ATOM      8  C   UNL     1      48.772   9.713  14.183  0.00  0.00    +0.000 A 
BRANCH   6   9
ATOM      9  C   UNL     1      48.970   8.710  17.841  0.00  0.00    +0.000 C 
ATOM     10  O   UNL     1      49.821   9.102  18.636  0.00  0.00    +0.000 OA
ATOM     11  N   UNL     1      47.770   8.160  18.226  0.00  0.00    +0.000 N 
ATOM     12  H   UNL     1      47.110   7.823  17.539  0.00  0.00    +0.000 HD
BRANCH  11  13
ATOM     13  C   UNL     1      47.360   8.058  19.609  0.00  0.00    +0.000 C 
BRANCH  13  14
ATOM     14  C   UNL     1      48.011   6.893  20.320  0.00  0.00    +0.000 A 
ATOM     15  C   UNL     1      48.116   5.658  19.681  0.00  0.00    +0.000 A 
ATOM     16  C   UNL     1      48.719   4.600  20.355  0.00  0.00    +0.000 A 
ATOM     17  C   UNL     1      49.203   4.800  21.642  0.00  0.00    +0.000 A 
ATOM     18  C   UNL     1      49.068   6.059  22.203  0.00  0.00    +0.000 A 
ATOM     19  N   UNL     1      48.491   7.108  21.573  0.00  0.00    +0.000 NA
ENDBRANCH  13  14
ENDBRANCH  11  13
ENDBRANCH   6   9
ENDBRANCH   2   3
BRANCH   2  20
ATOM     20  N   UNL     1      48.970   7.680  11.413  0.00  0.00    +0.000 NA
ATOM     21  H   UNL     1      49.261   6.748  11.701  0.00  0.00    +0.000 HD
BRANCH  20  22
ATOM     22  C   UNL     1      47.546   7.846  11.704  0.00  0.00    +0.000 C 
BRANCH  22  23
ATOM     23  C   UNL     1      46.927   6.549  12.163  0.00  0.00    +0.000 A 
ATOM     24  C   UNL     1      47.201   6.024  13.432  0.00  0.00    +0.000 A 
ATOM     25  C   UNL     1      46.625   4.820  13.835  0.00  0.00    +0.000 A 
ATOM     26  C   UNL     1      45.742   4.149  12.989  0.00  0.00    +0.000 A 
ATOM     27  C   UNL     1      45.417   4.680  11.733  0.00  0.00    +0.000 A 
ATOM     28  C   UNL     1      46.041   5.864  11.319  0.00  0.00    +0.000 A 
BRANCH  27  29
ATOM     29  C   UNL     1      44.351   4.043  10.871  0.00  0.00    +0.000 C 
BRANCH  29  30
ATOM     30  N   UNL     1      44.652   2.623  10.708  0.00  0.00    +0.000 NA
ATOM     31  H   UNL     1      44.105   2.097  11.391  0.00  0.00    +0.000 HD
BRANCH  30  32
ATOM     32  C   UNL     1      44.309   2.129   9.373  0.00  0.00    +0.000 C 
BRANCH  32  33
ATOM     33  C   UNL     1      45.494   2.223   8.427  0.00  0.00    +0.000 A 
ATOM     34  C   UNL     1      45.820   3.437   7.821  0.00  0.00    +0.000 A 
ATOM     35  C   UNL     1      46.921   3.495   6.971  0.00  0.00    +0.000 A 
ATOM     36  C   UNL     1      47.665   2.344   6.744  0.00  0.00    +0.000 A 
ATOM     37  C   UNL     1      47.277   1.180   7.385  0.00  0.00    +0.000 A 
ATOM     38  N   UNL     1      46.216   1.092   8.218  0.00  0.00    +0.000 NA
ENDBRANCH  32  33
ENDBRANCH  30  32
ENDBRANCH  29  30
ENDBRANCH  27  29
ENDBRANCH  22  23
ENDBRANCH  20  22
ENDBRANCH   2  20
TORSDOF 11
ENDMDL
MODEL 9
REMARK VINA RESULT:    -6.844      2.010      3.187
REMARK INTER + INTRA:         -12.816
REMARK INTER:                 -10.177
REMARK INTRA:                  -2.639
REMARK UNBOUND:                -1.571
REMARK  Name = 
REMARK  12 active torsions:
REMARK  status: ('A' for Active; 'I' for Inactive)
REMARK    1  A    between atoms: C_1  and  C_2
REMARK    2  A    between atoms: C_2  and  N_3
REMARK    3  A    between atoms: C_2  and  C_20
REMARK    4  A    between atoms: N_3  and  C_4
REMARK    5  A    between atoms: C_4  and  C_5
REMARK    6  A    between atoms: C_9  and  C_10
REMARK    7  A    between atoms: C_10  and  N_11
REMARK    8  A    between atoms: N_11  and  C_12
REMARK    9  A    between atoms: C_12  and  C_13
REMARK   10  A    between atoms: C_23  and  C_24
REMARK   11  A    between atoms: N_26  and  C_27
REMARK   12  A    between atoms: C_27  and  C_28
REMARK                            x       y       z     vdW  Elec       q    Type
REMARK                         _______ _______ _______ _____ _____    ______ ____
ROOT
ATOM      1  C   UNL     1      51.818   9.405  12.610  0.00  0.00    +0.000 C 
ATOM      2  C   UNL     1      51.045   8.969  13.862  0.00  0.00    +0.000 C 
ENDROOT
BRANCH   2   3
ATOM      3  C   UNL     1      49.794   8.198  13.468  0.00  0.00    +0.000 A 
ATOM      4  C   UNL     1      49.324   7.170  14.303  0.00  0.00    +0.000 A 
ATOM      5  C   UNL     1      48.192   6.430  13.952  0.00  0.00    +0.000 A 
ATOM      6  C   UNL     1      47.510   6.708  12.764  0.00  0.00    +0.000 A 
ATOM      7  C   UNL     1      47.934   7.777  11.964  0.00  0.00    +0.000 A 
ATOM      8  C   UNL     1      49.071   8.507  12.306  0.00  0.00    +0.000 A 
BRANCH   6   9
ATOM      9  C   UNL     1      46.355   5.853  12.368  0.00  0.00    +0.000 C 
ATOM     10  O   UNL     1      45.836   5.089  13.177  0.00  0.00    +0.000 OA
ATOM     11  N   UNL     1      45.955   5.952  11.055  0.00  0.00    +0.000 N 
ATOM     12  H   UNL     1      46.429   6.572  10.414  0.00  0.00    +0.000 HD
BRANCH  11  13
ATOM     13  C   UNL     1      44.832   5.216  10.518  0.00  0.00    +0.000 C 
BRANCH  13  14
ATOM     14  C   UNL     1      45.254   4.176   9.505  0.00  0.00    +0.000 A 
ATOM     15  C   UNL     1      44.995   2.827   9.743  0.00  0.00    +0.000 A 
ATOM     16  C   UNL     1      45.390   1.886   8.796  0.00  0.00    +0.000 A 
ATOM     17  C   UNL     1      46.029   2.314   7.639  0.00  0.00    +0.000 A 
ATOM     18  C   UNL     1      46.240   3.673   7.472  0.00  0.00    +0.000 A 
ATOM     19  N   UNL     1      45.864   4.611   8.371  0.00  0.00    +0.000 NA
ENDBRANCH  13  14
ENDBRANCH  11  13
ENDBRANCH   6   9
ENDBRANCH   2   3
BRANCH   2  20
ATOM     20  N   UNL     1      50.762  10.144  14.696  0.00  0.00    +0.000 NA
ATOM     21  H   UNL     1      49.764  10.344  14.694  0.00  0.00    +0.000 HD
BRANCH  20  22
ATOM     22  C   UNL     1      51.211   9.967  16.076  0.00  0.00    +0.000 C 
BRANCH  22  23
ATOM     23  C   UNL     1      50.066   9.578  16.978  0.00  0.00    +0.000 A 
ATOM     24  C   UNL     1      48.741   9.881  16.640  0.00  0.00    +0.000 A 
ATOM     25  C   UNL     1      47.697   9.519  17.490  0.00  0.00    +0.000 A 
ATOM     26  C   UNL     1      47.964   8.819  18.667  0.00  0.00    +0.000 A 
ATOM     27  C   UNL     1      49.278   8.464  19.002  0.00  0.00    +0.000 A 
ATOM     28  C   UNL     1      50.323   8.877  18.166  0.00  0.00    +0.000 A 
BRANCH  27  29
ATOM     29  C   UNL     1      49.565   7.578  20.193  0.00  0.00    +0.000 C 
BRANCH  29  30
ATOM     30  N   UNL     1      48.945   6.273  19.981  0.00  0.00    +0.000 NA
ATOM     31  H   UNL     1      48.127   6.399  19.383  0.00  0.00    +0.000 HD
BRANCH  30  32
ATOM     32  C   UNL     1      49.848   5.327  19.323  0.00  0.00    +0.000 C 
BRANCH  32  33
ATOM     33  C   UNL     1      49.121   4.511  18.267  0.00  0.00    +0.000 A 
ATOM     34  C   UNL     1      47.971   5.013  17.655  0.00  0.00    +0.000 A 
ATOM     35  C   UNL     1      47.336   4.249  16.680  0.00  0.00    +0.000 A 
ATOM     36  C   UNL     1      47.860   3.008  16.341  0.00  0.00    +0.000 A 
ATOM     37  C   UNL     1      49.006   2.584  16.993  0.00  0.00    +0.000 A 
ATOM     38  N   UNL     1      49.648   3.303  17.941  0.00  0.00    +0.000 NA
ENDBRANCH  32  33
ENDBRANCH  30  32
ENDBRANCH  29  30
ENDBRANCH  27  29
ENDBRANCH  22  23
ENDBRANCH  20  22
ENDBRANCH   2  20
TORSDOF 11
ENDMDL
