MODEL 1
REMARK VINA RESULT:    -8.144      0.000      0.000
REMARK INTER + INTRA:         -12.806
REMARK INTER:                 -12.428
REMARK INTRA:                  -0.378
REMARK UNBOUND:                -0.378
REMARK  Name = 
REMARK  10 active torsions:
REMARK  status: ('A' for Active; 'I' for Inactive)
REMARK    1  A    between atoms: C_1  and  O_2
REMARK    2  A    between atoms: O_2  and  C_3
REMARK    3  A    between atoms: C_3  and  C_4
REMARK    4  A    between atoms: C_3  and  C_27
REMARK    5  A    between atoms: C_4  and  N_5
REMARK    6  A    between atoms: N_5  and  C_6
REMARK    7  A    between atoms: C_6  and  C_7
REMARK    8  A    between atoms: C_10  and  C_11
REMARK    9  A    between atoms: C_11  and  N_12
REMARK   10  A    between atoms: C_13  and  C_15
REMARK                            x       y       z     vdW  Elec       q    Type
REMARK                         _______ _______ _______ _____ _____    ______ ____
ROOT
ATOM      1  C   UNL     1      44.611   6.128  12.021  0.00  0.00    +0.000 A 
ATOM      2  C   UNL     1      45.085   5.256  13.017  0.00  0.00    +0.000 A 
ATOM      3  C   UNL     1      46.303   5.475  13.656  0.00  0.00    +0.000 A 
ATOM      4  C   UNL     1      47.071   6.596  13.339  0.00  0.00    +0.000 A 
ATOM      5  C   UNL     1      46.613   7.472  12.346  0.00  0.00    +0.000 A 
ATOM      6  C   UNL     1      45.394   7.243  11.696  0.00  0.00    +0.000 A 
ENDROOT
BRANCH   1   7
ATOM      7  C   UNL     1      43.290   5.893  11.305  0.00  0.00    +0.000 C 
BRANCH   7   8
ATOM      8  N   UNL     1      43.505   5.283   9.999  0.00  0.00    +0.000 NA
ATOM      9  H   UNL     1      42.687   4.706   9.789  0.00  0.00    +0.000 HD
BRANCH   8  10
ATOM     10  C   UNL     1      44.684   4.419   9.900  0.00  0.00    +0.000 C 
BRANCH  10  11
ATOM     11  C   UNL     1      44.349   3.094   9.138  0.00  0.00    +0.000 C 
BRANCH  11  12
ATOM     12  C   UNL     1      45.560   2.637   8.315  0.00  0.00    +0.000 A 
ATOM     13  C   UNL     1      46.205   3.508   7.430  0.00  0.00    +0.000 A 
ATOM     14  C   UNL     1      47.247   3.034   6.637  0.00  0.00    +0.000 A 
ATOM     15  C   UNL     1      47.626   1.704   6.741  0.00  0.00    +0.000 A 
ATOM     16  C   UNL     1      46.949   0.903   7.643  0.00  0.00    +0.000 A 
ATOM     17  N   UNL     1      45.935   1.334   8.429  0.00  0.00    +0.000 NA
ENDBRANCH  11  12
BRANCH  11  19
ATOM     18  C   UNL     1      43.664   2.377  11.338  0.00  0.00    +0.000 C 
ATOM     19  O   UNL     1      43.918   2.016   9.993  0.00  0.00    +0.000 OA
ENDBRANCH  11  19
ENDBRANCH  10  11
ENDBRANCH   8  10
ENDBRANCH   7   8
ENDBRANCH   1   7
BRANCH   4  20
ATOM     20  C   UNL     1      48.395   6.814  14.017  0.00  0.00    +0.000 C 
BRANCH  20  21
ATOM     21  N   UNL     1      48.212   7.004  15.433  0.00  0.00    +0.000 N 
ATOM     22  C   UNL     1      49.168   6.619  16.334  0.00  0.00    +0.000 C 
ATOM     23  O   UNL     1      50.239   6.131  15.980  0.00  0.00    +0.000 OA
ATOM     24  H   UNL     1      47.272   7.222  15.748  0.00  0.00    +0.000 HD
BRANCH  22  25
ATOM     25  C   UNL     1      48.870   6.870  17.752  0.00  0.00    +0.000 A 
ATOM     26  C   UNL     1      48.673   8.173  18.187  0.00  0.00    +0.000 A 
ATOM     27  S   UNL     1      48.284   8.290  19.840  0.00  0.00    +0.000 S 
ATOM     28  C   UNL     1      48.411   6.606  20.045  0.00  0.00    +0.000 A 
ATOM     29  N   UNL     1      48.213   6.035  21.263  0.00  0.00    +0.000 NA
ATOM     30  C   UNL     1      48.369   4.753  21.286  0.00  0.00    +0.000 A 
ATOM     31  N   UNL     1      48.700   3.990  20.196  0.00  0.00    +0.000 N 
ATOM     32  C   UNL     1      48.881   4.519  18.939  0.00  0.00    +0.000 A 
ATOM     33  O   UNL     1      49.147   3.803  17.983  0.00  0.00    +0.000 OA
ATOM     34  C   UNL     1      48.730   5.960  18.864  0.00  0.00    +0.000 A 
ATOM     35  H   UNL     1      48.805   2.990  20.276  0.00  0.00    +0.000 HD
ENDBRANCH  22  25
ENDBRANCH  20  21
ENDBRANCH   4  20
TORSDOF 9
ENDMDL
MODEL 2
REMARK VINA RESULT:    -8.118      3.334      4.468
REMARK INTER + INTRA:         -12.767
REMARK INTER:                 -11.360
REMARK INTRA:                  -1.408
REMARK UNBOUND:                -0.378
REMARK  Name = 
REMARK  10 active torsions:
REMARK  status: ('A' for Active; 'I' for Inactive)
REMARK    1  A    between atoms: C_1  and  O_2
REMARK    2  A    between atoms: O_2  and  C_3
REMARK    3  A    between atoms: C_3  and  C_4
REMARK    4  A    between atoms: C_3  and  C_27
REMARK    5  A    between atoms: C_4  and  N_5
REMARK    6  A    between atoms: N_5  and  C_6
REMARK    7  A    between atoms: C_6  and  C_7
REMARK    8  A    between atoms: C_10  and  C_11
REMARK    9  A    between atoms: C_11  and  N_12
REMARK   10  A    between atoms: C_13  and  C_15
REMARK                            x       y       z     vdW  Elec       q    Type
REMARK                         _______ _______ _______ _____ _____    ______ ____
ROOT
ATOM      1  C   UNL     1      47.218   5.525  13.574  0.00  0.00    +0.000 A 
ATOM      2  C   UNL     1      46.746   4.206  13.702  0.00  0.00    +0.000 A 
ATOM      3  C   UNL     1      46.906   3.488  14.884  0.00  0.00    +0.000 A 
ATOM      4  C   UNL     1      47.516   4.081  15.989  0.00  0.00    +0.000 A 
ATOM      5  C   UNL     1      47.995   5.394  15.876  0.00  0.00    +0.000 A 
ATOM      6  C   UNL     1      47.844   6.110  14.682  0.00  0.00    +0.000 A 
ENDROOT
BRANCH   1   7
ATOM      7  C   UNL     1      47.063   6.316  12.284  0.00  0.00    +0.000 C 
BRANCH   7   8
ATOM      8  N   UNL     1      46.209   5.611  11.337  0.00  0.00    +0.000 NA
ATOM      9  H   UNL     1      46.669   5.638  10.425  0.00  0.00    +0.000 HD
BRANCH   8  10
ATOM     10  C   UNL     1      44.867   6.175  11.165  0.00  0.00    +0.000 C 
BRANCH  10  11
ATOM     11  C   UNL     1      43.876   5.107  10.592  0.00  0.00    +0.000 C 
BRANCH  11  12
ATOM     12  C   UNL     1      44.612   4.167   9.630  0.00  0.00    +0.000 A 
ATOM     13  C   UNL     1      44.558   2.778   9.790  0.00  0.00    +0.000 A 
ATOM     14  C   UNL     1      45.307   1.960   8.949  0.00  0.00    +0.000 A 
ATOM     15  C   UNL     1      46.096   2.539   7.967  0.00  0.00    +0.000 A 
ATOM     16  C   UNL     1      46.096   3.919   7.862  0.00  0.00    +0.000 A 
ATOM     17  N   UNL     1      45.376   4.741   8.661  0.00  0.00    +0.000 NA
ENDBRANCH  11  12
BRANCH  11  19
ATOM     18  C   UNL     1      43.070   4.959  12.862  0.00  0.00    +0.000 C 
ATOM     19  O   UNL     1      43.204   4.328  11.602  0.00  0.00    +0.000 OA
ENDBRANCH  11  19
ENDBRANCH  10  11
ENDBRANCH   8  10
ENDBRANCH   7   8
ENDBRANCH   1   7
BRANCH   4  20
ATOM     20  C   UNL     1      47.705   3.293  17.255  0.00  0.00    +0.000 C 
BRANCH  20  21
ATOM     21  N   UNL     1      49.104   3.191  17.583  0.00  0.00    +0.000 N 
ATOM     22  C   UNL     1      49.914   2.268  16.976  0.00  0.00    +0.000 C 
ATOM     23  O   UNL     1      49.500   1.514  16.099  0.00  0.00    +0.000 OA
ATOM     24  H   UNL     1      49.413   3.664  18.427  0.00  0.00    +0.000 HD
BRANCH  22  25
ATOM     25  C   UNL     1      51.324   2.264  17.390  0.00  0.00    +0.000 A 
ATOM     26  C   UNL     1      51.967   1.054  17.610  0.00  0.00    +0.000 A 
ATOM     27  S   UNL     1      53.609   1.218  18.030  0.00  0.00    +0.000 S 
ATOM     28  C   UNL     1      53.507   2.916  17.981  0.00  0.00    +0.000 A 
ATOM     29  N   UNL     1      54.589   3.688  18.270  0.00  0.00    +0.000 NA
ATOM     30  C   UNL     1      54.368   4.959  18.224  0.00  0.00    +0.000 A 
ATOM     31  N   UNL     1      53.161   5.529  17.910  0.00  0.00    +0.000 N 
ATOM     32  C   UNL     1      52.048   4.789  17.582  0.00  0.00    +0.000 A 
ATOM     33  O   UNL     1      50.994   5.333  17.277  0.00  0.00    +0.000 OA
ATOM     34  C   UNL     1      52.242   3.352  17.632  0.00  0.00    +0.000 A 
ATOM     35  H   UNL     1      53.050   6.531  17.888  0.00  0.00    +0.000 HD
ENDBRANCH  22  25
ENDBRANCH  20  21
ENDBRANCH   4  20
TORSDOF 9
ENDMDL
MODEL 3
REMARK VINA RESULT:    -7.714      2.734      3.712
REMARK INTER + INTRA:         -12.151
REMARK INTER:                 -10.881
REMARK INTRA:                  -1.270
REMARK UNBOUND:                -0.378
REMARK  Name = 
REMARK  10 active torsions:
REMARK  status: ('A' for Active; 'I' for Inactive)
REMARK    1  A    between atoms: C_1  and  O_2
REMARK    2  A    between atoms: O_2  and  C_3
REMARK    3  A    between atoms: C_3  and  C_4
REMARK    4  A    between atoms: C_3  and  C_27
REMARK    5  A    between atoms: C_4  and  N_5
REMARK    6  A    between atoms: N_5  and  C_6
REMARK    7  A    between atoms: C_6  and  C_7
REMARK    8  A    between atoms: C_10  and  C_11
REMARK    9  A    between atoms: C_11  and  N_12
REMARK   10  A    between atoms: C_13  and  C_15
REMARK                            x       y       z     vdW  Elec       q    Type
REMARK                         _______ _______ _______ _____ _____    ______ ____
ROOT
ATOM      1  C   UNL     1      47.429   6.791  12.660  0.00  0.00    +0.000 A 
ATOM      2  C   UNL     1      48.029   8.021  12.984  0.00  0.00    +0.000 A 
ATOM      3  C   UNL     1      48.628   8.233  14.224  0.00  0.00    +0.000 A 
ATOM      4  C   UNL     1      48.674   7.207  15.167  0.00  0.00    +0.000 A 
ATOM      5  C   UNL     1      48.077   5.977  14.860  0.00  0.00    +0.000 A 
ATOM      6  C   UNL     1      47.464   5.769  13.618  0.00  0.00    +0.000 A 
ENDROOT
BRANCH   1   7
ATOM      7  C   UNL     1      46.758   6.548  11.317  0.00  0.00    +0.000 C 
BRANCH   7   8
ATOM      8  N   UNL     1      45.812   5.443  11.398  0.00  0.00    +0.000 NA
ATOM      9  H   UNL     1      46.055   4.773  10.665  0.00  0.00    +0.000 HD
BRANCH   8  10
ATOM     10  C   UNL     1      44.406   5.808  11.206  0.00  0.00    +0.000 C 
BRANCH  10  11
ATOM     11  C   UNL     1      43.594   4.618  10.593  0.00  0.00    +0.000 C 
BRANCH  11  12
ATOM     12  C   UNL     1      44.457   3.856   9.580  0.00  0.00    +0.000 A 
ATOM     13  C   UNL     1      44.615   2.468   9.662  0.00  0.00    +0.000 A 
ATOM     14  C   UNL     1      45.474   1.822   8.777  0.00  0.00    +0.000 A 
ATOM     15  C   UNL     1      46.159   2.569   7.830  0.00  0.00    +0.000 A 
ATOM     16  C   UNL     1      45.948   3.936   7.802  0.00  0.00    +0.000 A 
ATOM     17  N   UNL     1      45.117   4.593   8.645  0.00  0.00    +0.000 NA
ENDBRANCH  11  12
BRANCH  11  19
ATOM     18  C   UNL     1      43.288   4.064  12.922  0.00  0.00    +0.000 C 
ATOM     19  O   UNL     1      43.076   3.695  11.572  0.00  0.00    +0.000 OA
ENDBRANCH  11  19
ENDBRANCH  10  11
ENDBRANCH   8  10
ENDBRANCH   7   8
ENDBRANCH   1   7
BRANCH   4  20
ATOM     20  C   UNL     1      49.304   7.452  16.510  0.00  0.00    +0.000 C 
BRANCH  20  21
ATOM     21  N   UNL     1      50.258   6.417  16.817  0.00  0.00    +0.000 N 
ATOM     22  C   UNL     1      50.467   5.997  18.103  0.00  0.00    +0.000 C 
ATOM     23  O   UNL     1      49.826   6.449  19.048  0.00  0.00    +0.000 OA
ATOM     24  H   UNL     1      50.921   6.175  16.087  0.00  0.00    +0.000 HD
BRANCH  22  25
ATOM     25  C   UNL     1      51.462   4.931  18.289  0.00  0.00    +0.000 A 
ATOM     26  C   UNL     1      52.664   5.224  18.919  0.00  0.00    +0.000 A 
ATOM     27  S   UNL     1      53.684   3.873  19.105  0.00  0.00    +0.000 S 
ATOM     28  C   UNL     1      52.576   2.858  18.307  0.00  0.00    +0.000 A 
ATOM     29  N   UNL     1      52.855   1.542  18.107  0.00  0.00    +0.000 NA
ATOM     30  C   UNL     1      51.943   0.893  17.463  0.00  0.00    +0.000 A 
ATOM     31  N   UNL     1      50.773   1.442  17.005  0.00  0.00    +0.000 N 
ATOM     32  C   UNL     1      50.435   2.760  17.210  0.00  0.00    +0.000 A 
ATOM     33  O   UNL     1      49.367   3.209  16.812  0.00  0.00    +0.000 OA
ATOM     34  C   UNL     1      51.435   3.537  17.918  0.00  0.00    +0.000 A 
ATOM     35  H   UNL     1      50.096   0.882  16.510  0.00  0.00    +0.000 HD
ENDBRANCH  22  25
ENDBRANCH  20  21
ENDBRANCH   4  20
TORSDOF 9
ENDMDL
MODEL 4
REMARK VINA RESULT:    -7.638      3.747      9.538
REMARK INTER + INTRA:         -12.034
REMARK INTER:                  -9.354
REMARK INTRA:                  -2.681
REMARK UNBOUND:                -0.378
REMARK  Name = 
REMARK  10 active torsions:
REMARK  status: ('A' for Active; 'I' for Inactive)
REMARK    1  A    between atoms: C_1  and  O_2
REMARK    2  A    between atoms: O_2  and  C_3
REMARK    3  A    between atoms: C_3  and  C_4
REMARK    4  A    between atoms: C_3  and  C_27
REMARK    5  A    between atoms: C_4  and  N_5
REMARK    6  A    between atoms: N_5  and  C_6
REMARK    7  A    between atoms: C_6  and  C_7
REMARK    8  A    between atoms: C_10  and  C_11
REMARK    9  A    between atoms: C_11  and  N_12
REMARK   10  A    between atoms: C_13  and  C_15
REMARK                            x       y       z     vdW  Elec       q    Type
REMARK                         _______ _______ _______ _____ _____    ______ ____
ROOT
ATOM      1  C   UNL     1      48.367   5.684  20.390  0.00  0.00    +0.000 A 
ATOM      2  C   UNL     1      47.248   6.058  19.625  0.00  0.00    +0.000 A 
ATOM      3  C   UNL     1      46.921   5.394  18.444  0.00  0.00    +0.000 A 
ATOM      4  C   UNL     1      47.687   4.312  18.011  0.00  0.00    +0.000 A 
ATOM      5  C   UNL     1      48.807   3.930  18.762  0.00  0.00    +0.000 A 
ATOM      6  C   UNL     1      49.142   4.606  19.942  0.00  0.00    +0.000 A 
ENDROOT
BRANCH   1   7
ATOM      7  C   UNL     1      48.746   6.408  21.674  0.00  0.00    +0.000 C 
BRANCH   7   8
ATOM      8  N   UNL     1      48.782   7.850  21.468  0.00  0.00    +0.000 NA
ATOM      9  H   UNL     1      48.011   8.093  20.843  0.00  0.00    +0.000 HD
BRANCH   8  10
ATOM     10  C   UNL     1      50.013   8.364  20.862  0.00  0.00    +0.000 C 
BRANCH  10  11
ATOM     11  C   UNL     1      49.699   9.226  19.593  0.00  0.00    +0.000 C 
BRANCH  11  12
ATOM     12  C   UNL     1      49.771   8.356  18.332  0.00  0.00    +0.000 A 
ATOM     13  C   UNL     1      48.816   8.473  17.316  0.00  0.00    +0.000 A 
ATOM     14  C   UNL     1      48.865   7.607  16.226  0.00  0.00    +0.000 A 
ATOM     15  C   UNL     1      49.861   6.644  16.170  0.00  0.00    +0.000 A 
ATOM     16  C   UNL     1      50.775   6.591  17.207  0.00  0.00    +0.000 A 
ATOM     17  N   UNL     1      50.757   7.420  18.277  0.00  0.00    +0.000 NA
ENDBRANCH  11  12
BRANCH  11  19
ATOM     18  C   UNL     1      48.414  11.129  20.336  0.00  0.00    +0.000 C 
ATOM     19  O   UNL     1      48.423   9.897  19.640  0.00  0.00    +0.000 OA
ENDBRANCH  11  19
ENDBRANCH  10  11
ENDBRANCH   8  10
ENDBRANCH   7   8
ENDBRANCH   1   7
BRANCH   4  20
ATOM     20  C   UNL     1      47.339   3.616  16.725  0.00  0.00    +0.000 C 
BRANCH  20  21
ATOM     21  N   UNL     1      46.829   4.557  15.762  0.00  0.00    +0.000 N 
ATOM     22  C   UNL     1      46.828   4.278  14.421  0.00  0.00    +0.000 C 
ATOM     23  O   UNL     1      47.223   3.202  13.980  0.00  0.00    +0.000 OA
ATOM     24  H   UNL     1      46.682   5.509  16.085  0.00  0.00    +0.000 HD
BRANCH  22  25
ATOM     25  C   UNL     1      46.276   5.315  13.538  0.00  0.00    +0.000 A 
ATOM     26  C   UNL     1      47.031   6.446  13.260  0.00  0.00    +0.000 A 
ATOM     27  S   UNL     1      46.274   7.524  12.180  0.00  0.00    +0.000 S 
ATOM     28  C   UNL     1      44.890   6.540  12.083  0.00  0.00    +0.000 A 
ATOM     29  N   UNL     1      43.826   6.907  11.320  0.00  0.00    +0.000 NA
ATOM     30  C   UNL     1      42.830   6.086  11.358  0.00  0.00    +0.000 A 
ATOM     31  N   UNL     1      42.806   4.925  12.088  0.00  0.00    +0.000 N 
ATOM     32  C   UNL     1      43.869   4.499  12.850  0.00  0.00    +0.000 A 
ATOM     33  O   UNL     1      43.823   3.441  13.465  0.00  0.00    +0.000 OA
ATOM     34  C   UNL     1      45.009   5.396  12.850  0.00  0.00    +0.000 A 
ATOM     35  H   UNL     1      41.998   4.321  12.075  0.00  0.00    +0.000 HD
ENDBRANCH  22  25
ENDBRANCH  20  21
ENDBRANCH   4  20
TORSDOF 9
ENDMDL
MODEL 5
REMARK VINA RESULT:    -7.607      2.932      9.190
REMARK INTER + INTRA:         -11.987
REMARK INTER:                 -10.061
REMARK INTRA:                  -1.926
REMARK UNBOUND:                -0.378
REMARK  Name = 
REMARK  10 active torsions:
REMARK  status: ('A' for Active; 'I' for Inactive)
REMARK    1  A    between atoms: C_1  and  O_2
REMARK    2  A    between atoms: O_2  and  C_3
REMARK    3  A    between atoms: C_3  and  C_4
REMARK    4  A    between atoms: C_3  and  C_27
REMARK    5  A    between atoms: C_4  and  N_5
REMARK    6  A    between atoms: N_5  and  C_6
REMARK    7  A    between atoms: C_6  and  C_7
REMARK    8  A    between atoms: C_10  and  C_11
REMARK    9  A    between atoms: C_11  and  N_12
REMARK   10  A    between atoms: C_13  and  C_15
REMARK                            x       y       z     vdW  Elec       q    Type
REMARK                         _______ _______ _______ _____ _____    ______ ____
ROOT
ATOM      1  C   UNL     1      49.022   8.260  15.996  0.00  0.00    +0.000 A 
ATOM      2  C   UNL     1      48.855   6.999  15.397  0.00  0.00    +0.000 A 
ATOM      3  C   UNL     1      48.425   6.871  14.078  0.00  0.00    +0.000 A 
ATOM      4  C   UNL     1      48.181   8.007  13.306  0.00  0.00    +0.000 A 
ATOM      5  C   UNL     1      48.339   9.271  13.890  0.00  0.00    +0.000 A 
ATOM      6  C   UNL     1      48.759   9.397  15.220  0.00  0.00    +0.000 A 
ENDROOT
BRANCH   1   7
ATOM      7  C   UNL     1      49.476   8.415  17.440  0.00  0.00    +0.000 C 
BRANCH   7   8
ATOM      8  N   UNL     1      49.110   7.246  18.230  0.00  0.00    +0.000 NA
ATOM      9  H   UNL     1      49.056   6.448  17.594  0.00  0.00    +0.000 HD
BRANCH   8  10
ATOM     10  C   UNL     1      47.824   7.339  18.924  0.00  0.00    +0.000 C 
BRANCH  10  11
ATOM     11  C   UNL     1      47.326   5.927  19.379  0.00  0.00    +0.000 C 
BRANCH  11  12
ATOM     12  C   UNL     1      47.875   4.846  18.440  0.00  0.00    +0.000 A 
ATOM     13  C   UNL     1      47.112   4.357  17.374  0.00  0.00    +0.000 A 
ATOM     14  C   UNL     1      47.609   3.316  16.594  0.00  0.00    +0.000 A 
ATOM     15  C   UNL     1      48.855   2.782  16.891  0.00  0.00    +0.000 A 
ATOM     16  C   UNL     1      49.556   3.320  17.956  0.00  0.00    +0.000 A 
ATOM     17  N   UNL     1      49.102   4.333  18.729  0.00  0.00    +0.000 NA
ENDBRANCH  11  12
BRANCH  11  19
ATOM     18  C   UNL     1      47.541   6.655  21.670  0.00  0.00    +0.000 C 
ATOM     19  O   UNL     1      47.664   5.595  20.741  0.00  0.00    +0.000 OA
ENDBRANCH  11  19
ENDBRANCH  10  11
ENDBRANCH   8  10
ENDBRANCH   7   8
ENDBRANCH   1   7
BRANCH   4  20
ATOM     20  C   UNL     1      47.696   7.861  11.890  0.00  0.00    +0.000 C 
BRANCH  20  21
ATOM     21  N   UNL     1      46.977   6.624  11.727  0.00  0.00    +0.000 N 
ATOM     22  C   UNL     1      45.609   6.592  11.698  0.00  0.00    +0.000 C 
ATOM     23  O   UNL     1      44.932   7.614  11.769  0.00  0.00    +0.000 OA
ATOM     24  H   UNL     1      47.505   5.766  11.860  0.00  0.00    +0.000 HD
BRANCH  22  25
ATOM     25  C   UNL     1      44.989   5.271  11.521  0.00  0.00    +0.000 A 
ATOM     26  C   UNL     1      44.290   4.699  12.575  0.00  0.00    +0.000 A 
ATOM     27  S   UNL     1      43.588   3.194  12.193  0.00  0.00    +0.000 S 
ATOM     28  C   UNL     1      44.235   3.232  10.620  0.00  0.00    +0.000 A 
ATOM     29  N   UNL     1      44.021   2.205   9.754  0.00  0.00    +0.000 NA
ATOM     30  C   UNL     1      44.591   2.346   8.604  0.00  0.00    +0.000 A 
ATOM     31  N   UNL     1      45.354   3.426   8.241  0.00  0.00    +0.000 N 
ATOM     32  C   UNL     1      45.572   4.500   9.071  0.00  0.00    +0.000 A 
ATOM     33  O   UNL     1      46.234   5.462   8.701  0.00  0.00    +0.000 OA
ATOM     34  C   UNL     1      44.962   4.384  10.383  0.00  0.00    +0.000 A 
ATOM     35  H   UNL     1      45.772   3.480   7.324  0.00  0.00    +0.000 HD
ENDBRANCH  22  25
ENDBRANCH  20  21
ENDBRANCH   4  20
TORSDOF 9
ENDMDL
MODEL 6
REMARK VINA RESULT:    -7.550      3.151      9.236
REMARK INTER + INTRA:         -11.900
REMARK INTER:                 -10.068
REMARK INTRA:                  -1.831
REMARK UNBOUND:                -0.378
REMARK  Name = 
REMARK  10 active torsions:
REMARK  status: ('A' for Active; 'I' for Inactive)
REMARK    1  A    between atoms: C_1  and  O_2
REMARK    2  A    between atoms: O_2  and  C_3
REMARK    3  A    between atoms: C_3  and  C_4
REMARK    4  A    between atoms: C_3  and  C_27
REMARK    5  A    between atoms: C_4  and  N_5
REMARK    6  A    between atoms: N_5  and  C_6
REMARK    7  A    between atoms: C_6  and  C_7
REMARK    8  A    between atoms: C_10  and  C_11
REMARK    9  A    between atoms: C_11  and  N_12
REMARK   10  A    between atoms: C_13  and  C_15
REMARK                            x       y       z     vdW  Elec       q    Type
REMARK                         _______ _______ _______ _____ _____    ______ ____
ROOT
ATOM      1  C   UNL     1      50.379   7.566  15.273  0.00  0.00    +0.000 A 
ATOM      2  C   UNL     1      50.658   8.430  14.200  0.00  0.00    +0.000 A 
ATOM      3  C   UNL     1      49.819   8.508  13.091  0.00  0.00    +0.000 A 
ATOM      4  C   UNL     1      48.653   7.744  13.038  0.00  0.00    +0.000 A 
ATOM      5  C   UNL     1      48.363   6.875  14.098  0.00  0.00    +0.000 A 
ATOM      6  C   UNL     1      49.214   6.789  15.207  0.00  0.00    +0.000 A 
ENDROOT
BRANCH   1   7
ATOM      7  C   UNL     1      51.293   7.459  16.484  0.00  0.00    +0.000 C 
BRANCH   7   8
ATOM      8  N   UNL     1      51.733   6.085  16.687  0.00  0.00    +0.000 NA
ATOM      9  H   UNL     1      51.111   5.478  16.147  0.00  0.00    +0.000 HD
BRANCH   8  10
ATOM     10  C   UNL     1      51.700   5.616  18.075  0.00  0.00    +0.000 C 
BRANCH  10  11
ATOM     11  C   UNL     1      51.164   4.148  18.162  0.00  0.00    +0.000 C 
BRANCH  11  12
ATOM     12  C   UNL     1      49.701   4.092  17.707  0.00  0.00    +0.000 A 
ATOM     13  C   UNL     1      48.724   4.893  18.308  0.00  0.00    +0.000 A 
ATOM     14  C   UNL     1      47.392   4.754  17.927  0.00  0.00    +0.000 A 
ATOM     15  C   UNL     1      47.059   3.820  16.957  0.00  0.00    +0.000 A 
ATOM     16  C   UNL     1      48.078   3.068  16.401  0.00  0.00    +0.000 A 
ATOM     17  N   UNL     1      49.381   3.182  16.746  0.00  0.00    +0.000 NA
ENDBRANCH  11  12
BRANCH  11  19
ATOM     18  C   UNL     1      52.824   2.396  18.167  0.00  0.00    +0.000 C 
ATOM     19  O   UNL     1      51.938   3.195  17.405  0.00  0.00    +0.000 OA
ENDBRANCH  11  19
ENDBRANCH  10  11
ENDBRANCH   8  10
ENDBRANCH   7   8
ENDBRANCH   1   7
BRANCH   4  20
ATOM     20  C   UNL     1      47.764   7.817  11.828  0.00  0.00    +0.000 C 
BRANCH  20  21
ATOM     21  N   UNL     1      47.039   6.585  11.659  0.00  0.00    +0.000 N 
ATOM     22  C   UNL     1      45.674   6.539  11.764  0.00  0.00    +0.000 C 
ATOM     23  O   UNL     1      45.002   7.547  11.967  0.00  0.00    +0.000 OA
ATOM     24  H   UNL     1      47.581   5.726  11.684  0.00  0.00    +0.000 HD
BRANCH  22  25
ATOM     25  C   UNL     1      45.047   5.224  11.566  0.00  0.00    +0.000 A 
ATOM     26  C   UNL     1      44.378   4.622  12.623  0.00  0.00    +0.000 A 
ATOM     27  S   UNL     1      43.662   3.130  12.217  0.00  0.00    +0.000 S 
ATOM     28  C   UNL     1      44.262   3.214  10.627  0.00  0.00    +0.000 A 
ATOM     29  N   UNL     1      44.020   2.214   9.738  0.00  0.00    +0.000 NA
ATOM     30  C   UNL     1      44.557   2.388   8.577  0.00  0.00    +0.000 A 
ATOM     31  N   UNL     1      45.311   3.478   8.223  0.00  0.00    +0.000 N 
ATOM     32  C   UNL     1      45.556   4.526   9.079  0.00  0.00    +0.000 A 
ATOM     33  O   UNL     1      46.209   5.498   8.718  0.00  0.00    +0.000 OA
ATOM     34  C   UNL     1      44.985   4.372  10.403  0.00  0.00    +0.000 A 
ATOM     35  H   UNL     1      45.703   3.559   7.297  0.00  0.00    +0.000 HD
ENDBRANCH  22  25
ENDBRANCH  20  21
ENDBRANCH   4  20
TORSDOF 9
ENDMDL
MODEL 7
REMARK VINA RESULT:    -7.417      5.576      8.108
REMARK INTER + INTRA:         -11.697
REMARK INTER:                 -10.502
REMARK INTRA:                  -1.194
REMARK UNBOUND:                -0.378
REMARK  Name = 
REMARK  10 active torsions:
REMARK  status: ('A' for Active; 'I' for Inactive)
REMARK    1  A    between atoms: C_1  and  O_2
REMARK    2  A    between atoms: O_2  and  C_3
REMARK    3  A    between atoms: C_3  and  C_4
REMARK    4  A    between atoms: C_3  and  C_27
REMARK    5  A    between atoms: C_4  and  N_5
REMARK    6  A    between atoms: N_5  and  C_6
REMARK    7  A    between atoms: C_6  and  C_7
REMARK    8  A    between atoms: C_10  and  C_11
REMARK    9  A    between atoms: C_11  and  N_12
REMARK   10  A    between atoms: C_13  and  C_15
REMARK                            x       y       z     vdW  Elec       q    Type
REMARK                         _______ _______ _______ _____ _____    ______ ____
ROOT
ATOM      1  C   UNL     1      46.868   7.509  12.319  0.00  0.00    +0.000 A 
ATOM      2  C   UNL     1      47.903   6.592  12.575  0.00  0.00    +0.000 A 
ATOM      3  C   UNL     1      49.242   6.943  12.418  0.00  0.00    +0.000 A 
ATOM      4  C   UNL     1      49.587   8.237  12.030  0.00  0.00    +0.000 A 
ATOM      5  C   UNL     1      48.567   9.162  11.768  0.00  0.00    +0.000 A 
ATOM      6  C   UNL     1      47.221   8.803  11.914  0.00  0.00    +0.000 A 
ENDROOT
BRANCH   1   7
ATOM      7  C   UNL     1      45.401   7.136  12.472  0.00  0.00    +0.000 C 
BRANCH   7   8
ATOM      8  N   UNL     1      44.930   6.387  11.314  0.00  0.00    +0.000 NA
ATOM      9  H   UNL     1      43.954   6.646  11.155  0.00  0.00    +0.000 HD
BRANCH   8  10
ATOM     10  C   UNL     1      44.977   4.929  11.450  0.00  0.00    +0.000 C 
BRANCH  10  11
ATOM     11  C   UNL     1      44.108   4.232  10.351  0.00  0.00    +0.000 C 
BRANCH  11  12
ATOM     12  C   UNL     1      45.007   3.693   9.231  0.00  0.00    +0.000 A 
ATOM     13  C   UNL     1      45.212   2.320   9.063  0.00  0.00    +0.000 A 
ATOM     14  C   UNL     1      46.101   1.871   8.090  0.00  0.00    +0.000 A 
ATOM     15  C   UNL     1      46.768   2.799   7.304  0.00  0.00    +0.000 A 
ATOM     16  C   UNL     1      46.511   4.141   7.520  0.00  0.00    +0.000 A 
ATOM     17  N   UNL     1      45.651   4.608   8.455  0.00  0.00    +0.000 NA
ENDBRANCH  11  12
BRANCH  11  19
ATOM     18  C   UNL     1      43.473   2.830  12.209  0.00  0.00    +0.000 C 
ATOM     19  O   UNL     1      43.274   3.167  10.849  0.00  0.00    +0.000 OA
ENDBRANCH  11  19
ENDBRANCH  10  11
ENDBRANCH   8  10
ENDBRANCH   7   8
ENDBRANCH   1   7
BRANCH   4  20
ATOM     20  C   UNL     1      51.034   8.602  11.842  0.00  0.00    +0.000 C 
BRANCH  20  21
ATOM     21  N   UNL     1      51.549   8.015  10.632  0.00  0.00    +0.000 N 
ATOM     22  C   UNL     1      52.837   7.557  10.553  0.00  0.00    +0.000 C 
ATOM     23  O   UNL     1      53.599   7.586  11.517  0.00  0.00    +0.000 OA
ATOM     24  H   UNL     1      51.006   8.158   9.785  0.00  0.00    +0.000 HD
BRANCH  22  25
ATOM     25  C   UNL     1      53.246   6.974   9.267  0.00  0.00    +0.000 A 
ATOM     26  C   UNL     1      53.668   5.652   9.221  0.00  0.00    +0.000 A 
ATOM     27  S   UNL     1      54.055   5.113   7.652  0.00  0.00    +0.000 S 
ATOM     28  C   UNL     1      53.718   6.642   6.986  0.00  0.00    +0.000 A 
ATOM     29  N   UNL     1      53.872   6.871   5.654  0.00  0.00    +0.000 NA
ATOM     30  C   UNL     1      53.611   8.080   5.285  0.00  0.00    +0.000 A 
ATOM     31  N   UNL     1      53.204   9.082   6.128  0.00  0.00    +0.000 N 
ATOM     32  C   UNL     1      53.007   8.889   7.476  0.00  0.00    +0.000 A 
ATOM     33  O   UNL     1      52.614   9.800   8.194  0.00  0.00    +0.000 OA
ATOM     34  C   UNL     1      53.300   7.548   7.944  0.00  0.00    +0.000 A 
ATOM     35  H   UNL     1      53.013  10.008   5.779  0.00  0.00    +0.000 HD
ENDBRANCH  22  25
ENDBRANCH  20  21
ENDBRANCH   4  20
TORSDOF 9
ENDMDL
MODEL 8
REMARK VINA RESULT:    -7.370      1.575      2.240
REMARK INTER + INTRA:         -11.626
REMARK INTER:                 -10.646
REMARK INTRA:                  -0.980
REMARK UNBOUND:                -0.378
REMARK  Name = 
REMARK  10 active torsions:
REMARK  status: ('A' for Active; 'I' for Inactive)
REMARK    1  A    between atoms: C_1  and  O_2
REMARK    2  A    between atoms: O_2  and  C_3
REMARK    3  A    between atoms: C_3  and  C_4
REMARK    4  A    between atoms: C_3  and  C_27
REMARK    5  A    between atoms: C_4  and  N_5
REMARK    6  A    between atoms: N_5  and  C_6
REMARK    7  A    between atoms: C_6  and  C_7
REMARK    8  A    between atoms: C_10  and  C_11
REMARK    9  A    between atoms: C_11  and  N_12
REMARK   10  A    between atoms: C_13  and  C_15
REMARK                            x       y       z     vdW  Elec       q    Type
REMARK                         _______ _______ _______ _____ _____    ______ ____
ROOT
ATOM      1  C   UNL     1      46.319   6.519  11.961  0.00  0.00    +0.000 A 
ATOM      2  C   UNL     1      46.460   5.761  13.137  0.00  0.00    +0.000 A 
ATOM      3  C   UNL     1      47.540   5.947  13.997  0.00  0.00    +0.000 A 
ATOM      4  C   UNL     1      48.498   6.923  13.721  0.00  0.00    +0.000 A 
ATOM      5  C   UNL     1      48.373   7.684  12.550  0.00  0.00    +0.000 A 
ATOM      6  C   UNL     1      47.293   7.487  11.681  0.00  0.00    +0.000 A 
ENDROOT
BRANCH   1   7
ATOM      7  C   UNL     1      45.153   6.317  11.004  0.00  0.00    +0.000 C 
BRANCH   7   8
ATOM      8  N   UNL     1      45.460   5.292  10.016  0.00  0.00    +0.000 NA
ATOM      9  H   UNL     1      46.035   5.724   9.290  0.00  0.00    +0.000 HD
BRANCH   8  10
ATOM     10  C   UNL     1      44.298   4.694   9.354  0.00  0.00    +0.000 C 
BRANCH  10  11
ATOM     11  C   UNL     1      44.376   3.131   9.382  0.00  0.00    +0.000 C 
BRANCH  11  12
ATOM     12  C   UNL     1      45.460   2.638   8.415  0.00  0.00    +0.000 A 
ATOM     13  C   UNL     1      45.866   3.416   7.324  0.00  0.00    +0.000 A 
ATOM     14  C   UNL     1      46.790   2.900   6.420  0.00  0.00    +0.000 A 
ATOM     15  C   UNL     1      47.292   1.622   6.618  0.00  0.00    +0.000 A 
ATOM     16  C   UNL     1      46.851   0.914   7.722  0.00  0.00    +0.000 A 
ATOM     17  N   UNL     1      45.957   1.388   8.620  0.00  0.00    +0.000 NA
ENDBRANCH  11  12
BRANCH  11  19
ATOM     18  C   UNL     1      43.555   2.732  11.616  0.00  0.00    +0.000 C 
ATOM     19  O   UNL     1      44.616   2.578  10.692  0.00  0.00    +0.000 OA
ENDBRANCH  11  19
ENDBRANCH  10  11
ENDBRANCH   8  10
ENDBRANCH   7   8
ENDBRANCH   1   7
BRANCH   4  20
ATOM     20  C   UNL     1      49.672   7.103  14.642  0.00  0.00    +0.000 C 
BRANCH  20  21
ATOM     21  N   UNL     1      49.227   7.274  16.001  0.00  0.00    +0.000 N 
ATOM     22  C   UNL     1      49.410   6.295  16.941  0.00  0.00    +0.000 C 
ATOM     23  O   UNL     1      49.995   5.246  16.683  0.00  0.00    +0.000 OA
ATOM     24  H   UNL     1      48.582   8.038  16.179  0.00  0.00    +0.000 HD
BRANCH  22  25
ATOM     25  C   UNL     1      48.917   6.587  18.294  0.00  0.00    +0.000 A 
ATOM     26  C   UNL     1      47.964   5.757  18.867  0.00  0.00    +0.000 A 
ATOM     27  S   UNL     1      47.538   6.200  20.456  0.00  0.00    +0.000 S 
ATOM     28  C   UNL     1      48.578   7.546  20.417  0.00  0.00    +0.000 A 
ATOM     29  N   UNL     1      48.675   8.383  21.484  0.00  0.00    +0.000 NA
ATOM     30  C   UNL     1      49.477   9.381  21.312  0.00  0.00    +0.000 A 
ATOM     31  N   UNL     1      50.196   9.613  20.168  0.00  0.00    +0.000 N 
ATOM     32  C   UNL     1      50.153   8.778  19.075  0.00  0.00    +0.000 A 
ATOM     33  O   UNL     1      50.832   9.001  18.081  0.00  0.00    +0.000 OA
ATOM     34  C   UNL     1      49.254   7.648  19.214  0.00  0.00    +0.000 A 
ATOM     35  H   UNL     1      50.810  10.410  20.094  0.00  0.00    +0.000 HD
ENDBRANCH  22  25
ENDBRANCH  20  21
ENDBRANCH   4  20
TORSDOF 9
ENDMDL
MODEL 9
REMARK VINA RESULT:    -7.276      3.889      9.540
REMARK INTER + INTRA:         -11.481
REMARK INTER:                  -8.820
REMARK INTRA:                  -2.662
REMARK UNBOUND:                -0.378
REMARK  Name = 
REMARK  10 active torsions:
REMARK  status: ('A' for Active; 'I' for Inactive)
REMARK    1  A    between atoms: C_1  and  O_2
REMARK    2  A    between atoms: O_2  and  C_3
REMARK    3  A    between atoms: C_3  and  C_4
REMARK    4  A    between atoms: C_3  and  C_27
REMARK    5  A    between atoms: C_4  and  N_5
REMARK    6  A    between atoms: N_5  and  C_6
REMARK    7  A    between atoms: C_6  and  C_7
REMARK    8  A    between atoms: C_10  and  C_11
REMARK    9  A    between atoms: C_11  and  N_12
REMARK   10  A    between atoms: C_13  and  C_15
REMARK                            x       y       z     vdW  Elec       q    Type
REMARK                         _______ _______ _______ _____ _____    ______ ____
ROOT
ATOM      1  C   UNL     1      51.035   4.405  18.699  0.00  0.00    +0.000 A 
ATOM      2  C   UNL     1      49.833   5.018  19.097  0.00  0.00    +0.000 A 
ATOM      3  C   UNL     1      48.615   4.677  18.513  0.00  0.00    +0.000 A 
ATOM      4  C   UNL     1      48.559   3.686  17.534  0.00  0.00    +0.000 A 
ATOM      5  C   UNL     1      49.749   3.068  17.125  0.00  0.00    +0.000 A 
ATOM      6  C   UNL     1      50.974   3.421  17.704  0.00  0.00    +0.000 A 
ENDROOT
BRANCH   1   7
ATOM      7  C   UNL     1      52.374   4.777  19.317  0.00  0.00    +0.000 C 
BRANCH   7   8
ATOM      8  N   UNL     1      52.737   6.150  18.990  0.00  0.00    +0.000 NA
ATOM      9  H   UNL     1      51.872   6.662  18.804  0.00  0.00    +0.000 HD
BRANCH   8  10
ATOM     10  C   UNL     1      53.598   6.306  17.815  0.00  0.00    +0.000 C 
BRANCH  10  11
ATOM     11  C   UNL     1      53.137   7.516  16.935  0.00  0.00    +0.000 C 
BRANCH  11  12
ATOM     12  C   UNL     1      51.606   7.599  16.914  0.00  0.00    +0.000 A 
ATOM     13  C   UNL     1      50.856   6.928  15.942  0.00  0.00    +0.000 A 
ATOM     14  C   UNL     1      49.475   7.096  15.903  0.00  0.00    +0.000 A 
ATOM     15  C   UNL     1      48.867   7.929  16.830  0.00  0.00    +0.000 A 
ATOM     16  C   UNL     1      49.670   8.555  17.767  0.00  0.00    +0.000 A 
ATOM     17  N   UNL     1      51.014   8.409  17.834  0.00  0.00    +0.000 NA
ENDBRANCH  11  12
BRANCH  11  19
ATOM     18  C   UNL     1      54.732   9.284  16.545  0.00  0.00    +0.000 C 
ATOM     19  O   UNL     1      53.680   8.785  17.350  0.00  0.00    +0.000 OA
ENDBRANCH  11  19
ENDBRANCH  10  11
ENDBRANCH   8  10
ENDBRANCH   7   8
ENDBRANCH   1   7
BRANCH   4  20
ATOM     20  C   UNL     1      47.244   3.339  16.893  0.00  0.00    +0.000 C 
BRANCH  20  21
ATOM     21  N   UNL     1      46.878   4.335  15.919  0.00  0.00    +0.000 N 
ATOM     22  C   UNL     1      46.975   4.089  14.575  0.00  0.00    +0.000 C 
ATOM     23  O   UNL     1      47.336   3.000  14.137  0.00  0.00    +0.000 OA
ATOM     24  H   UNL     1      46.765   5.287  16.256  0.00  0.00    +0.000 HD
BRANCH  22  25
ATOM     25  C   UNL     1      46.568   5.181  13.679  0.00  0.00    +0.000 A 
ATOM     26  C   UNL     1      47.455   6.216  13.418  0.00  0.00    +0.000 A 
ATOM     27  S   UNL     1      46.854   7.372  12.322  0.00  0.00    +0.000 S 
ATOM     28  C   UNL     1      45.366   6.555  12.194  0.00  0.00    +0.000 A 
ATOM     29  N   UNL     1      44.370   7.043  11.407  0.00  0.00    +0.000 NA
ATOM     30  C   UNL     1      43.285   6.343  11.423  0.00  0.00    +0.000 A 
ATOM     31  N   UNL     1      43.109   5.195  12.152  0.00  0.00    +0.000 N 
ATOM     32  C   UNL     1      44.097   4.650  12.937  0.00  0.00    +0.000 A 
ATOM     33  O   UNL     1      43.914   3.606  13.551  0.00  0.00    +0.000 OA
ATOM     34  C   UNL     1      45.334   5.407  12.964  0.00  0.00    +0.000 A 
ATOM     35  H   UNL     1      42.236   4.690  12.121  0.00  0.00    +0.000 HD
ENDBRANCH  22  25
ENDBRANCH  20  21
ENDBRANCH   4  20
TORSDOF 9
ENDMDL
