MODEL 1
REMARK VINA RESULT:    -7.543      0.000      0.000
REMARK INTER + INTRA:         -11.961
REMARK INTER:                 -10.851
REMARK INTRA:                  -1.110
REMARK UNBOUND:                -1.110
REMARK  Name = 
REMARK  10 active torsions:
REMARK  status: ('A' for Active; 'I' for Inactive)
REMARK    1  A    between atoms: C_1  and  C_2
REMARK    2  A    between atoms: C_2  and  C_3
REMARK    3  A    between atoms: C_2  and  C_4
REMARK    4  A    between atoms: C_2  and  C_17
REMARK    5  A    between atoms: C_4  and  N_5
REMARK    6  A    between atoms: N_5  and  C_6
REMARK    7  A    between atoms: C_9  and  C_10
REMARK    8  A    between atoms: C_14  and  C_15
REMARK    9  A    between atoms: C_21  and  C_22
REMARK   10  A    between atoms: C_22  and  N_23
REMARK                            x       y       z     vdW  Elec       q    Type
REMARK                         _______ _______ _______ _____ _____    ______ ____
ROOT
ATOM      1  N   UNL     1      44.676   5.362   9.823  0.00  0.00    +0.000 N 
ATOM      2  H   UNL     1      43.971   5.824   9.250  0.00  0.00    +0.000 HD
ENDROOT
BRANCH   1   3
ATOM      3  C   UNL     1      45.296   4.354   9.065  0.00  0.00    +0.000 A 
ATOM      4  N   UNL     1      46.125   4.712   8.059  0.00  0.00    +0.000 NA
ATOM      5  C   UNL     1      46.728   3.738   7.334  0.00  0.00    +0.000 A 
ATOM      6  C   UNL     1      46.578   2.388   7.587  0.00  0.00    +0.000 A 
ATOM      7  C   UNL     1      45.732   2.020   8.628  0.00  0.00    +0.000 A 
ATOM      8  C   UNL     1      45.074   3.007   9.383  0.00  0.00    +0.000 A 
BRANCH   6   9
ATOM      9  C   UNL     1      47.296   1.419   6.739  0.00  0.00    +0.000 C 
ATOM     10  N   UNL     1      48.331   1.893   5.983  0.00  0.00    +0.000 N 
ATOM     11  O   UNL     1      46.961   0.242   6.690  0.00  0.00    +0.000 OA
ATOM     12  H   UNL     1      48.496   2.879   5.832  0.00  0.00    +0.000 HD
ATOM     13  H   UNL     1      48.762   1.241   5.341  0.00  0.00    +0.000 HD
ENDBRANCH   6   9
BRANCH   8  14
ATOM     14  C   UNL     1      44.171   2.598  10.511  0.00  0.00    +0.000 C 
ATOM     15  F   UNL     1      44.696   2.877  11.744  0.00  0.00    +0.000 F 
ENDBRANCH   8  14
ENDBRANCH   1   3
BRANCH   1  16
ATOM     16  C   UNL     1      45.611   6.356  10.380  0.00  0.00    +0.000 C 
BRANCH  16  18
ATOM     17  C   UNL     1      44.702   8.321  11.680  0.00  0.00    +0.000 C 
ATOM     18  C   UNL     1      45.163   6.846  11.792  0.00  0.00    +0.000 C 
ATOM     19  C   UNL     1      43.916   6.034  12.221  0.00  0.00    +0.000 C 
BRANCH  18  20
ATOM     20  C   UNL     1      46.303   6.622  12.805  0.00  0.00    +0.000 A 
ATOM     21  C   UNL     1      47.337   7.567  12.941  0.00  0.00    +0.000 A 
ATOM     22  C   UNL     1      48.326   7.425  13.917  0.00  0.00    +0.000 A 
ATOM     23  C   UNL     1      48.308   6.332  14.779  0.00  0.00    +0.000 A 
ATOM     24  C   UNL     1      47.304   5.366  14.667  0.00  0.00    +0.000 A 
ATOM     25  C   UNL     1      46.313   5.524  13.682  0.00  0.00    +0.000 A 
BRANCH  24  26
ATOM     26  C   UNL     1      47.235   4.198  15.614  0.00  0.00    +0.000 C 
BRANCH  26  27
ATOM     27  N   UNL     1      47.710   2.982  14.969  0.00  0.00    +0.000 NA
ATOM     28  H   UNL     1      47.119   2.787  14.163  0.00  0.00    +0.000 HD
ATOM     29  H   UNL     1      47.593   2.198  15.608  0.00  0.00    +0.000 HD
ENDBRANCH  26  27
ENDBRANCH  24  26
ENDBRANCH  18  20
ENDBRANCH  16  18
ENDBRANCH   1  16
TORSDOF 8
ENDMDL
MODEL 2
REMARK VINA RESULT:    -7.184      1.876      3.910
REMARK INTER + INTRA:         -11.444
REMARK INTER:                 -10.411
REMARK INTRA:                  -1.033
REMARK UNBOUND:                -1.110
REMARK  Name = 
REMARK  10 active torsions:
REMARK  status: ('A' for Active; 'I' for Inactive)
REMARK    1  A    between atoms: C_1  and  C_2
REMARK    2  A    between atoms: C_2  and  C_3
REMARK    3  A    between atoms: C_2  and  C_4
REMARK    4  A    between atoms: C_2  and  C_17
REMARK    5  A    between atoms: C_4  and  N_5
REMARK    6  A    between atoms: N_5  and  C_6
REMARK    7  A    between atoms: C_9  and  C_10
REMARK    8  A    between atoms: C_14  and  C_15
REMARK    9  A    between atoms: C_21  and  C_22
REMARK   10  A    between atoms: C_22  and  N_23
REMARK                            x       y       z     vdW  Elec       q    Type
REMARK                         _______ _______ _______ _____ _____    ______ ____
ROOT
ATOM      1  N   UNL     1      44.800   5.421   9.750  0.00  0.00    +0.000 N 
ATOM      2  H   UNL     1      44.369   6.099   9.123  0.00  0.00    +0.000 HD
ENDROOT
BRANCH   1   3
ATOM      3  C   UNL     1      45.391   4.399   8.987  0.00  0.00    +0.000 A 
ATOM      4  N   UNL     1      46.249   4.737   7.999  0.00  0.00    +0.000 NA
ATOM      5  C   UNL     1      46.824   3.750   7.269  0.00  0.00    +0.000 A 
ATOM      6  C   UNL     1      46.616   2.403   7.502  0.00  0.00    +0.000 A 
ATOM      7  C   UNL     1      45.740   2.056   8.524  0.00  0.00    +0.000 A 
ATOM      8  C   UNL     1      45.111   3.058   9.284  0.00  0.00    +0.000 A 
BRANCH   6   9
ATOM      9  C   UNL     1      47.308   1.418   6.651  0.00  0.00    +0.000 C 
ATOM     10  N   UNL     1      48.278   1.886   5.810  0.00  0.00    +0.000 N 
ATOM     11  O   UNL     1      47.006   0.231   6.674  0.00  0.00    +0.000 OA
ATOM     12  H   UNL     1      48.403   2.868   5.607  0.00  0.00    +0.000 HD
ATOM     13  H   UNL     1      48.686   1.218   5.170  0.00  0.00    +0.000 HD
ENDBRANCH   6   9
BRANCH   8  14
ATOM     14  C   UNL     1      44.174   2.671  10.393  0.00  0.00    +0.000 C 
ATOM     15  F   UNL     1      44.700   2.893  11.637  0.00  0.00    +0.000 F 
ENDBRANCH   8  14
ENDBRANCH   1   3
BRANCH   1  16
ATOM     16  C   UNL     1      45.732   6.100  10.669  0.00  0.00    +0.000 C 
BRANCH  16  18
ATOM     17  C   UNL     1      43.555   6.142  11.949  0.00  0.00    +0.000 C 
ATOM     18  C   UNL     1      44.987   6.731  11.887  0.00  0.00    +0.000 C 
ATOM     19  C   UNL     1      45.698   6.279  13.186  0.00  0.00    +0.000 C 
BRANCH  18  20
ATOM     20  C   UNL     1      45.027   8.268  11.780  0.00  0.00    +0.000 A 
ATOM     21  C   UNL     1      46.060   9.003  12.392  0.00  0.00    +0.000 A 
ATOM     22  C   UNL     1      46.162  10.386  12.227  0.00  0.00    +0.000 A 
ATOM     23  C   UNL     1      45.231  11.070  11.450  0.00  0.00    +0.000 A 
ATOM     24  C   UNL     1      44.184  10.377  10.836  0.00  0.00    +0.000 A 
ATOM     25  C   UNL     1      44.096   8.985  11.008  0.00  0.00    +0.000 A 
BRANCH  24  26
ATOM     26  C   UNL     1      43.190  11.084   9.954  0.00  0.00    +0.000 C 
BRANCH  26  27
ATOM     27  N   UNL     1      43.261  10.580   8.590  0.00  0.00    +0.000 NA
ATOM     28  H   UNL     1      42.545   9.865   8.468  0.00  0.00    +0.000 HD
ATOM     29  H   UNL     1      44.157  10.116   8.452  0.00  0.00    +0.000 HD
ENDBRANCH  26  27
ENDBRANCH  24  26
ENDBRANCH  18  20
ENDBRANCH  16  18
ENDBRANCH   1  16
TORSDOF 8
ENDMDL
MODEL 3
REMARK VINA RESULT:    -6.618      3.121      7.293
REMARK INTER + INTRA:         -10.629
REMARK INTER:                  -9.955
REMARK INTRA:                  -0.674
REMARK UNBOUND:                -1.110
REMARK  Name = 
REMARK  10 active torsions:
REMARK  status: ('A' for Active; 'I' for Inactive)
REMARK    1  A    between atoms: C_1  and  C_2
REMARK    2  A    between atoms: C_2  and  C_3
REMARK    3  A    between atoms: C_2  and  C_4
REMARK    4  A    between atoms: C_2  and  C_17
REMARK    5  A    between atoms: C_4  and  N_5
REMARK    6  A    between atoms: N_5  and  C_6
REMARK    7  A    between atoms: C_9  and  C_10
REMARK    8  A    between atoms: C_14  and  C_15
REMARK    9  A    between atoms: C_21  and  C_22
REMARK   10  A    between atoms: C_22  and  N_23
REMARK                            x       y       z     vdW  Elec       q    Type
REMARK                         _______ _______ _______ _____ _____    ______ ____
ROOT
ATOM      1  N   UNL     1      45.813   4.811  12.398  0.00  0.00    +0.000 N 
ATOM      2  H   UNL     1      45.132   5.564  12.304  0.00  0.00    +0.000 HD
ENDROOT
BRANCH   1   3
ATOM      3  C   UNL     1      46.588   5.033  13.549  0.00  0.00    +0.000 A 
ATOM      4  N   UNL     1      46.613   4.084  14.511  0.00  0.00    +0.000 NA
ATOM      5  C   UNL     1      47.367   4.296  15.617  0.00  0.00    +0.000 A 
ATOM      6  C   UNL     1      48.153   5.417  15.806  0.00  0.00    +0.000 A 
ATOM      7  C   UNL     1      48.134   6.390  14.812  0.00  0.00    +0.000 A 
ATOM      8  C   UNL     1      47.344   6.208  13.664  0.00  0.00    +0.000 A 
BRANCH   6   9
ATOM      9  C   UNL     1      48.943   5.533  17.045  0.00  0.00    +0.000 C 
ATOM     10  N   UNL     1      48.895   6.726  17.711  0.00  0.00    +0.000 N 
ATOM     11  O   UNL     1      49.639   4.609  17.448  0.00  0.00    +0.000 OA
ATOM     12  H   UNL     1      48.514   7.568  17.304  0.00  0.00    +0.000 HD
ATOM     13  H   UNL     1      49.506   6.825  18.511  0.00  0.00    +0.000 HD
ENDBRANCH   6   9
BRANCH   8  14
ATOM     14  C   UNL     1      47.339   7.261  12.592  0.00  0.00    +0.000 C 
ATOM     15  F   UNL     1      48.173   6.962  11.547  0.00  0.00    +0.000 F 
ENDBRANCH   8  14
ENDBRANCH   1   3
BRANCH   1  16
ATOM     16  C   UNL     1      45.132   3.504  12.375  0.00  0.00    +0.000 C 
BRANCH  16  18
ATOM     17  C   UNL     1      43.198   2.174  11.442  0.00  0.00    +0.000 C 
ATOM     18  C   UNL     1      44.107   3.405  11.202  0.00  0.00    +0.000 C 
ATOM     19  C   UNL     1      43.180   4.644  11.254  0.00  0.00    +0.000 C 
BRANCH  18  20
ATOM     20  C   UNL     1      44.860   3.375   9.857  0.00  0.00    +0.000 A 
ATOM     21  C   UNL     1      45.142   4.569   9.167  0.00  0.00    +0.000 A 
ATOM     22  C   UNL     1      45.903   4.567   7.996  0.00  0.00    +0.000 A 
ATOM     23  C   UNL     1      46.396   3.370   7.482  0.00  0.00    +0.000 A 
ATOM     24  C   UNL     1      46.126   2.163   8.133  0.00  0.00    +0.000 A 
ATOM     25  C   UNL     1      45.363   2.181   9.313  0.00  0.00    +0.000 A 
BRANCH  24  26
ATOM     26  C   UNL     1      46.685   0.861   7.625  0.00  0.00    +0.000 C 
BRANCH  26  27
ATOM     27  N   UNL     1      47.858   1.092   6.794  0.00  0.00    +0.000 NA
ATOM     28  H   UNL     1      48.363   0.214   6.691  0.00  0.00    +0.000 HD
ATOM     29  H   UNL     1      48.488   1.731   7.277  0.00  0.00    +0.000 HD
ENDBRANCH  26  27
ENDBRANCH  24  26
ENDBRANCH  18  20
ENDBRANCH  16  18
ENDBRANCH   1  16
TORSDOF 8
ENDMDL
MODEL 4
REMARK VINA RESULT:    -6.600      3.326      7.020
REMARK INTER + INTRA:         -10.603
REMARK INTER:                  -9.514
REMARK INTRA:                  -1.089
REMARK UNBOUND:                -1.110
REMARK  Name = 
REMARK  10 active torsions:
REMARK  status: ('A' for Active; 'I' for Inactive)
REMARK    1  A    between atoms: C_1  and  C_2
REMARK    2  A    between atoms: C_2  and  C_3
REMARK    3  A    between atoms: C_2  and  C_4
REMARK    4  A    between atoms: C_2  and  C_17
REMARK    5  A    between atoms: C_4  and  N_5
REMARK    6  A    between atoms: N_5  and  C_6
REMARK    7  A    between atoms: C_9  and  C_10
REMARK    8  A    between atoms: C_14  and  C_15
REMARK    9  A    between atoms: C_21  and  C_22
REMARK   10  A    between atoms: C_22  and  N_23
REMARK                            x       y       z     vdW  Elec       q    Type
REMARK                         _______ _______ _______ _____ _____    ______ ____
ROOT
ATOM      1  N   UNL     1      44.705   5.677  12.747  0.00  0.00    +0.000 N 
ATOM      2  H   UNL     1      45.476   5.085  13.054  0.00  0.00    +0.000 HD
ENDROOT
BRANCH   1   3
ATOM      3  C   UNL     1      45.190   6.975  12.508  0.00  0.00    +0.000 A 
ATOM      4  N   UNL     1      44.393   7.861  11.870  0.00  0.00    +0.000 NA
ATOM      5  C   UNL     1      44.859   9.115  11.648  0.00  0.00    +0.000 A 
ATOM      6  C   UNL     1      46.096   9.560  12.073  0.00  0.00    +0.000 A 
ATOM      7  C   UNL     1      46.912   8.651  12.737  0.00  0.00    +0.000 A 
ATOM      8  C   UNL     1      46.465   7.337  12.962  0.00  0.00    +0.000 A 
BRANCH   6   9
ATOM      9  C   UNL     1      46.490  10.951  11.785  0.00  0.00    +0.000 C 
ATOM     10  N   UNL     1      45.640  11.941  12.190  0.00  0.00    +0.000 N 
ATOM     11  O   UNL     1      47.524  11.210  11.182  0.00  0.00    +0.000 OA
ATOM     12  H   UNL     1      44.691  11.763  12.491  0.00  0.00    +0.000 HD
ATOM     13  H   UNL     1      45.876  12.885  11.913  0.00  0.00    +0.000 HD
ENDBRANCH   6   9
BRANCH   8  14
ATOM     14  C   UNL     1      47.352   6.366  13.690  0.00  0.00    +0.000 C 
ATOM     15  F   UNL     1      48.051   5.546  12.845  0.00  0.00    +0.000 F 
ENDBRANCH   8  14
ENDBRANCH   1   3
BRANCH   1  16
ATOM     16  C   UNL     1      44.026   5.068  11.589  0.00  0.00    +0.000 C 
BRANCH  16  18
ATOM     17  C   UNL     1      45.483   3.205  12.474  0.00  0.00    +0.000 C 
ATOM     18  C   UNL     1      44.513   3.607  11.335  0.00  0.00    +0.000 C 
ATOM     19  C   UNL     1      43.295   2.657  11.447  0.00  0.00    +0.000 C 
BRANCH  18  20
ATOM     20  C   UNL     1      45.126   3.502   9.925  0.00  0.00    +0.000 A 
ATOM     21  C   UNL     1      45.367   4.659   9.160  0.00  0.00    +0.000 A 
ATOM     22  C   UNL     1      46.006   4.589   7.921  0.00  0.00    +0.000 A 
ATOM     23  C   UNL     1      46.417   3.360   7.412  0.00  0.00    +0.000 A 
ATOM     24  C   UNL     1      46.184   2.188   8.137  0.00  0.00    +0.000 A 
ATOM     25  C   UNL     1      45.543   2.274   9.384  0.00  0.00    +0.000 A 
BRANCH  24  26
ATOM     26  C   UNL     1      46.658   0.851   7.632  0.00  0.00    +0.000 C 
BRANCH  26  27
ATOM     27  N   UNL     1      47.698   1.018   6.627  0.00  0.00    +0.000 NA
ATOM     28  H   UNL     1      48.576   1.234   7.097  0.00  0.00    +0.000 HD
ATOM     29  H   UNL     1      47.476   1.826   6.048  0.00  0.00    +0.000 HD
ENDBRANCH  26  27
ENDBRANCH  24  26
ENDBRANCH  18  20
ENDBRANCH  16  18
ENDBRANCH   1  16
TORSDOF 8
ENDMDL
MODEL 5
REMARK VINA RESULT:    -6.508      3.614      6.014
REMARK INTER + INTRA:         -10.471
REMARK INTER:                  -9.696
REMARK INTRA:                  -0.775
REMARK UNBOUND:                -1.110
REMARK  Name = 
REMARK  10 active torsions:
REMARK  status: ('A' for Active; 'I' for Inactive)
REMARK    1  A    between atoms: C_1  and  C_2
REMARK    2  A    between atoms: C_2  and  C_3
REMARK    3  A    between atoms: C_2  and  C_4
REMARK    4  A    between atoms: C_2  and  C_17
REMARK    5  A    between atoms: C_4  and  N_5
REMARK    6  A    between atoms: N_5  and  C_6
REMARK    7  A    between atoms: C_9  and  C_10
REMARK    8  A    between atoms: C_14  and  C_15
REMARK    9  A    between atoms: C_21  and  C_22
REMARK   10  A    between atoms: C_22  and  N_23
REMARK                            x       y       z     vdW  Elec       q    Type
REMARK                         _______ _______ _______ _____ _____    ______ ____
ROOT
ATOM      1  N   UNL     1      47.289   5.028  15.158  0.00  0.00    +0.000 N 
ATOM      2  H   UNL     1      48.163   5.543  15.053  0.00  0.00    +0.000 HD
ENDROOT
BRANCH   1   3
ATOM      3  C   UNL     1      46.608   5.023  13.928  0.00  0.00    +0.000 A 
ATOM      4  N   UNL     1      45.643   4.100  13.721  0.00  0.00    +0.000 NA
ATOM      5  C   UNL     1      44.982   4.102  12.538  0.00  0.00    +0.000 A 
ATOM      6  C   UNL     1      45.208   5.025  11.534  0.00  0.00    +0.000 A 
ATOM      7  C   UNL     1      46.195   5.980  11.751  0.00  0.00    +0.000 A 
ATOM      8  C   UNL     1      46.913   5.989  12.959  0.00  0.00    +0.000 A 
BRANCH   6   9
ATOM      9  C   UNL     1      44.416   4.937  10.294  0.00  0.00    +0.000 C 
ATOM     10  N   UNL     1      45.102   4.918   9.112  0.00  0.00    +0.000 N 
ATOM     11  O   UNL     1      43.192   4.911  10.317  0.00  0.00    +0.000 OA
ATOM     12  H   UNL     1      46.083   5.152   9.040  0.00  0.00    +0.000 HD
ATOM     13  H   UNL     1      44.550   4.944   8.265  0.00  0.00    +0.000 HD
ENDBRANCH   6   9
BRANCH   8  14
ATOM     14  C   UNL     1      47.971   7.032  13.186  0.00  0.00    +0.000 C 
ATOM     15  F   UNL     1      49.229   6.592  12.875  0.00  0.00    +0.000 F 
ENDBRANCH   8  14
ENDBRANCH   1   3
BRANCH   1  16
ATOM     16  C   UNL     1      47.554   3.683  15.703  0.00  0.00    +0.000 C 
BRANCH  16  18
ATOM     17  C   UNL     1      47.254   4.957  17.863  0.00  0.00    +0.000 C 
ATOM     18  C   UNL     1      47.954   3.739  17.210  0.00  0.00    +0.000 C 
ATOM     19  C   UNL     1      47.386   2.483  17.916  0.00  0.00    +0.000 C 
BRANCH  18  20
ATOM     20  C   UNL     1      49.490   3.757  17.338  0.00  0.00    +0.000 A 
ATOM     21  C   UNL     1      50.181   4.973  17.503  0.00  0.00    +0.000 A 
ATOM     22  C   UNL     1      51.561   5.000  17.714  0.00  0.00    +0.000 A 
ATOM     23  C   UNL     1      52.287   3.812  17.760  0.00  0.00    +0.000 A 
ATOM     24  C   UNL     1      51.637   2.586  17.589  0.00  0.00    +0.000 A 
ATOM     25  C   UNL     1      50.247   2.574  17.382  0.00  0.00    +0.000 A 
BRANCH  24  26
ATOM     26  C   UNL     1      52.389   1.285  17.680  0.00  0.00    +0.000 C 
BRANCH  26  27
ATOM     27  N   UNL     1      51.517   0.217  18.147  0.00  0.00    +0.000 NA
ATOM     28  H   UNL     1      51.599   0.147  19.160  0.00  0.00    +0.000 HD
ATOM     29  H   UNL     1      51.845  -0.671  17.770  0.00  0.00    +0.000 HD
ENDBRANCH  26  27
ENDBRANCH  24  26
ENDBRANCH  18  20
ENDBRANCH  16  18
ENDBRANCH   1  16
TORSDOF 8
ENDMDL
MODEL 6
REMARK VINA RESULT:    -6.476      3.642      7.821
REMARK INTER + INTRA:         -10.425
REMARK INTER:                  -9.604
REMARK INTRA:                  -0.822
REMARK UNBOUND:                -1.110
REMARK  Name = 
REMARK  10 active torsions:
REMARK  status: ('A' for Active; 'I' for Inactive)
REMARK    1  A    between atoms: C_1  and  C_2
REMARK    2  A    between atoms: C_2  and  C_3
REMARK    3  A    between atoms: C_2  and  C_4
REMARK    4  A    between atoms: C_2  and  C_17
REMARK    5  A    between atoms: C_4  and  N_5
REMARK    6  A    between atoms: N_5  and  C_6
REMARK    7  A    between atoms: C_9  and  C_10
REMARK    8  A    between atoms: C_14  and  C_15
REMARK    9  A    between atoms: C_21  and  C_22
REMARK   10  A    between atoms: C_22  and  N_23
REMARK                            x       y       z     vdW  Elec       q    Type
REMARK                         _______ _______ _______ _____ _____    ______ ____
ROOT
ATOM      1  N   UNL     1      47.029   5.071  13.442  0.00  0.00    +0.000 N 
ATOM      2  H   UNL     1      47.693   5.688  12.974  0.00  0.00    +0.000 HD
ENDROOT
BRANCH   1   3
ATOM      3  C   UNL     1      47.374   4.971  14.801  0.00  0.00    +0.000 A 
ATOM      4  N   UNL     1      46.905   3.925  15.517  0.00  0.00    +0.000 NA
ATOM      5  C   UNL     1      47.244   3.826  16.825  0.00  0.00    +0.000 A 
ATOM      6  C   UNL     1      48.082   4.716  17.470  0.00  0.00    +0.000 A 
ATOM      7  C   UNL     1      48.571   5.788  16.731  0.00  0.00    +0.000 A 
ATOM      8  C   UNL     1      48.218   5.929  15.377  0.00  0.00    +0.000 A 
BRANCH   6   9
ATOM      9  C   UNL     1      48.392   4.499  18.895  0.00  0.00    +0.000 C 
ATOM     10  N   UNL     1      48.329   3.217  19.362  0.00  0.00    +0.000 N 
ATOM     11  O   UNL     1      48.667   5.433  19.638  0.00  0.00    +0.000 OA
ATOM     12  H   UNL     1      47.902   2.462  18.844  0.00  0.00    +0.000 HD
ATOM     13  H   UNL     1      48.459   3.089  20.357  0.00  0.00    +0.000 HD
ENDBRANCH   6   9
BRANCH   8  14
ATOM     14  C   UNL     1      48.762   7.086  14.586  0.00  0.00    +0.000 C 
ATOM     15  F   UNL     1      50.124   7.049  14.454  0.00  0.00    +0.000 F 
ENDBRANCH   8  14
ENDBRANCH   1   3
BRANCH   1  16
ATOM     16  C   UNL     1      45.650   5.535  13.204  0.00  0.00    +0.000 C 
BRANCH  16  18
ATOM     17  C   UNL     1      44.310   7.038  11.681  0.00  0.00    +0.000 C 
ATOM     18  C   UNL     1      45.434   5.973  11.722  0.00  0.00    +0.000 C 
ATOM     19  C   UNL     1      46.719   6.679  11.226  0.00  0.00    +0.000 C 
BRANCH  18  20
ATOM     20  C   UNL     1      45.152   4.732  10.851  0.00  0.00    +0.000 A 
ATOM     21  C   UNL     1      44.376   3.668  11.348  0.00  0.00    +0.000 A 
ATOM     22  C   UNL     1      44.035   2.581  10.541  0.00  0.00    +0.000 A 
ATOM     23  C   UNL     1      44.465   2.527   9.218  0.00  0.00    +0.000 A 
ATOM     24  C   UNL     1      45.248   3.559   8.692  0.00  0.00    +0.000 A 
ATOM     25  C   UNL     1      45.580   4.649   9.515  0.00  0.00    +0.000 A 
BRANCH  24  26
ATOM     26  C   UNL     1      45.689   3.549   7.253  0.00  0.00    +0.000 C 
BRANCH  26  27
ATOM     27  N   UNL     1      46.944   4.269   7.093  0.00  0.00    +0.000 NA
ATOM     28  H   UNL     1      46.741   5.261   6.980  0.00  0.00    +0.000 HD
ATOM     29  H   UNL     1      47.394   3.968   6.230  0.00  0.00    +0.000 HD
ENDBRANCH  26  27
ENDBRANCH  24  26
ENDBRANCH  18  20
ENDBRANCH  16  18
ENDBRANCH   1  16
TORSDOF 8
ENDMDL
MODEL 7
REMARK VINA RESULT:    -6.139      3.775      5.929
REMARK INTER + INTRA:          -9.942
REMARK INTER:                  -8.899
REMARK INTRA:                  -1.042
REMARK UNBOUND:                -1.110
REMARK  Name = 
REMARK  10 active torsions:
REMARK  status: ('A' for Active; 'I' for Inactive)
REMARK    1  A    between atoms: C_1  and  C_2
REMARK    2  A    between atoms: C_2  and  C_3
REMARK    3  A    between atoms: C_2  and  C_4
REMARK    4  A    between atoms: C_2  and  C_17
REMARK    5  A    between atoms: C_4  and  N_5
REMARK    6  A    between atoms: N_5  and  C_6
REMARK    7  A    between atoms: C_9  and  C_10
REMARK    8  A    between atoms: C_14  and  C_15
REMARK    9  A    between atoms: C_21  and  C_22
REMARK   10  A    between atoms: C_22  and  N_23
REMARK                            x       y       z     vdW  Elec       q    Type
REMARK                         _______ _______ _______ _____ _____    ______ ____
ROOT
ATOM      1  N   UNL     1      48.307   6.490  13.128  0.00  0.00    +0.000 N 
ATOM      2  H   UNL     1      48.669   5.873  13.854  0.00  0.00    +0.000 HD
ENDROOT
BRANCH   1   3
ATOM      3  C   UNL     1      46.998   6.094  12.800  0.00  0.00    +0.000 A 
ATOM      4  N   UNL     1      46.409   6.633  11.709  0.00  0.00    +0.000 NA
ATOM      5  C   UNL     1      45.150   6.245  11.390  0.00  0.00    +0.000 A 
ATOM      6  C   UNL     1      44.439   5.292  12.096  0.00  0.00    +0.000 A 
ATOM      7  C   UNL     1      45.048   4.733  13.213  0.00  0.00    +0.000 A 
ATOM      8  C   UNL     1      46.345   5.132  13.582  0.00  0.00    +0.000 A 
BRANCH   6   9
ATOM      9  C   UNL     1      43.080   4.940  11.646  0.00  0.00    +0.000 C 
ATOM     10  N   UNL     1      42.109   5.893  11.774  0.00  0.00    +0.000 N 
ATOM     11  O   UNL     1      42.822   3.828  11.202  0.00  0.00    +0.000 OA
ATOM     12  H   UNL     1      42.230   6.731  12.327  0.00  0.00    +0.000 HD
ATOM     13  H   UNL     1      41.164   5.614  11.544  0.00  0.00    +0.000 HD
ENDBRANCH   6   9
BRANCH   8  14
ATOM     14  C   UNL     1      46.998   4.512  14.785  0.00  0.00    +0.000 C 
ATOM     15  F   UNL     1      47.349   3.204  14.587  0.00  0.00    +0.000 F 
ENDBRANCH   8  14
ENDBRANCH   1   3
BRANCH   1  16
ATOM     16  C   UNL     1      48.420   7.897  13.555  0.00  0.00    +0.000 C 
BRANCH  16  18
ATOM     17  C   UNL     1      50.564   9.226  13.435  0.00  0.00    +0.000 C 
ATOM     18  C   UNL     1      49.356   8.714  12.611  0.00  0.00    +0.000 C 
ATOM     19  C   UNL     1      49.936   7.754  11.543  0.00  0.00    +0.000 C 
BRANCH  18  20
ATOM     20  C   UNL     1      48.550   9.833  11.922  0.00  0.00    +0.000 A 
ATOM     21  C   UNL     1      49.159  10.673  10.970  0.00  0.00    +0.000 A 
ATOM     22  C   UNL     1      48.420  11.629  10.270  0.00  0.00    +0.000 A 
ATOM     23  C   UNL     1      47.056  11.774  10.507  0.00  0.00    +0.000 A 
ATOM     24  C   UNL     1      46.419  10.966  11.453  0.00  0.00    +0.000 A 
ATOM     25  C   UNL     1      47.173  10.005  12.148  0.00  0.00    +0.000 A 
BRANCH  24  26
ATOM     26  C   UNL     1      44.937  11.070  11.697  0.00  0.00    +0.000 C 
BRANCH  26  27
ATOM     27  N   UNL     1      44.476   9.977  12.542  0.00  0.00    +0.000 NA
ATOM     28  H   UNL     1      43.459  10.008  12.590  0.00  0.00    +0.000 HD
ATOM     29  H   UNL     1      44.813  10.124  13.491  0.00  0.00    +0.000 HD
ENDBRANCH  26  27
ENDBRANCH  24  26
ENDBRANCH  18  20
ENDBRANCH  16  18
ENDBRANCH   1  16
TORSDOF 8
ENDMDL
MODEL 8
REMARK VINA RESULT:    -6.004      3.944      5.638
REMARK INTER + INTRA:          -9.747
REMARK INTER:                  -8.241
REMARK INTRA:                  -1.506
REMARK UNBOUND:                -1.110
REMARK  Name = 
REMARK  10 active torsions:
REMARK  status: ('A' for Active; 'I' for Inactive)
REMARK    1  A    between atoms: C_1  and  C_2
REMARK    2  A    between atoms: C_2  and  C_3
REMARK    3  A    between atoms: C_2  and  C_4
REMARK    4  A    between atoms: C_2  and  C_17
REMARK    5  A    between atoms: C_4  and  N_5
REMARK    6  A    between atoms: N_5  and  C_6
REMARK    7  A    between atoms: C_9  and  C_10
REMARK    8  A    between atoms: C_14  and  C_15
REMARK    9  A    between atoms: C_21  and  C_22
REMARK   10  A    between atoms: C_22  and  N_23
REMARK                            x       y       z     vdW  Elec       q    Type
REMARK                         _______ _______ _______ _____ _____    ______ ____
ROOT
ATOM      1  N   UNL     1      48.274   6.561  13.904  0.00  0.00    +0.000 N 
ATOM      2  H   UNL     1      48.669   5.689  14.254  0.00  0.00    +0.000 HD
ENDROOT
BRANCH   1   3
ATOM      3  C   UNL     1      47.047   6.290  13.273  0.00  0.00    +0.000 A 
ATOM      4  N   UNL     1      46.518   7.222  12.450  0.00  0.00    +0.000 NA
ATOM      5  C   UNL     1      45.339   6.955  11.837  0.00  0.00    +0.000 A 
ATOM      6  C   UNL     1      44.657   5.760  11.971  0.00  0.00    +0.000 A 
ATOM      7  C   UNL     1      45.207   4.798  12.812  0.00  0.00    +0.000 A 
ATOM      8  C   UNL     1      46.417   5.055  13.479  0.00  0.00    +0.000 A 
BRANCH   6   9
ATOM      9  C   UNL     1      43.388   5.578  11.243  0.00  0.00    +0.000 C 
ATOM     10  N   UNL     1      42.275   6.177  11.762  0.00  0.00    +0.000 N 
ATOM     11  O   UNL     1      43.326   4.893  10.230  0.00  0.00    +0.000 OA
ATOM     12  H   UNL     1      42.242   6.562  12.696  0.00  0.00    +0.000 HD
ATOM     13  H   UNL     1      41.395   5.976  11.306  0.00  0.00    +0.000 HD
ENDBRANCH   6   9
BRANCH   8  14
ATOM     14  C   UNL     1      47.007   4.004  14.376  0.00  0.00    +0.000 C 
ATOM     15  F   UNL     1      46.696   4.194  15.696  0.00  0.00    +0.000 F 
ENDBRANCH   8  14
ENDBRANCH   1   3
BRANCH   1  16
ATOM     16  C   UNL     1      48.184   7.552  14.992  0.00  0.00    +0.000 C 
BRANCH  16  18
ATOM     17  C   UNL     1      50.686   7.296  15.218  0.00  0.00    +0.000 C 
ATOM     18  C   UNL     1      49.358   7.404  16.009  0.00  0.00    +0.000 C 
ATOM     19  C   UNL     1      49.454   8.705  16.842  0.00  0.00    +0.000 C 
BRANCH  18  20
ATOM     20  C   UNL     1      49.088   6.207  16.942  0.00  0.00    +0.000 A 
ATOM     21  C   UNL     1      48.093   6.284  17.936  0.00  0.00    +0.000 A 
ATOM     22  C   UNL     1      47.772   5.179  18.727  0.00  0.00    +0.000 A 
ATOM     23  C   UNL     1      48.441   3.971  18.549  0.00  0.00    +0.000 A 
ATOM     24  C   UNL     1      49.443   3.859  17.581  0.00  0.00    +0.000 A 
ATOM     25  C   UNL     1      49.753   4.978  16.789  0.00  0.00    +0.000 A 
BRANCH  24  26
ATOM     26  C   UNL     1      50.150   2.554  17.336  0.00  0.00    +0.000 C 
BRANCH  26  27
ATOM     27  N   UNL     1      49.575   1.862  16.191  0.00  0.00    +0.000 NA
ATOM     28  H   UNL     1      49.610   2.481  15.383  0.00  0.00    +0.000 HD
ATOM     29  H   UNL     1      48.589   1.682  16.372  0.00  0.00    +0.000 HD
ENDBRANCH  26  27
ENDBRANCH  24  26
ENDBRANCH  18  20
ENDBRANCH  16  18
ENDBRANCH   1  16
TORSDOF 8
ENDMDL
MODEL 9
REMARK VINA RESULT:    -5.941      3.801      5.415
REMARK INTER + INTRA:          -9.656
REMARK INTER:                  -8.716
REMARK INTRA:                  -0.939
REMARK UNBOUND:                -1.110
REMARK  Name = 
REMARK  10 active torsions:
REMARK  status: ('A' for Active; 'I' for Inactive)
REMARK    1  A    between atoms: C_1  and  C_2
REMARK    2  A    between atoms: C_2  and  C_3
REMARK    3  A    between atoms: C_2  and  C_4
REMARK    4  A    between atoms: C_2  and  C_17
REMARK    5  A    between atoms: C_4  and  N_5
REMARK    6  A    between atoms: N_5  and  C_6
REMARK    7  A    between atoms: C_9  and  C_10
REMARK    8  A    between atoms: C_14  and  C_15
REMARK    9  A    between atoms: C_21  and  C_22
REMARK   10  A    between atoms: C_22  and  N_23
REMARK                            x       y       z     vdW  Elec       q    Type
REMARK                         _______ _______ _______ _____ _____    ______ ____
ROOT
ATOM      1  N   UNL     1      47.341   7.442  13.852  0.00  0.00    +0.000 N 
ATOM      2  H   UNL     1      47.471   8.195  13.178  0.00  0.00    +0.000 HD
ENDROOT
BRANCH   1   3
ATOM      3  C   UNL     1      46.465   6.486  13.309  0.00  0.00    +0.000 A 
ATOM      4  N   UNL     1      46.546   5.208  13.743  0.00  0.00    +0.000 NA
ATOM      5  C   UNL     1      45.695   4.289  13.225  0.00  0.00    +0.000 A 
ATOM      6  C   UNL     1      44.714   4.588  12.299  0.00  0.00    +0.000 A 
ATOM      7  C   UNL     1      44.626   5.904  11.859  0.00  0.00    +0.000 A 
ATOM      8  C   UNL     1      45.509   6.875  12.362  0.00  0.00    +0.000 A 
BRANCH   6   9
ATOM      9  C   UNL     1      43.836   3.506  11.816  0.00  0.00    +0.000 C 
ATOM     10  N   UNL     1      43.830   2.338  12.525  0.00  0.00    +0.000 N 
ATOM     11  O   UNL     1      43.161   3.637  10.802  0.00  0.00    +0.000 OA
ATOM     12  H   UNL     1      44.523   2.117  13.227  0.00  0.00    +0.000 HD
ATOM     13  H   UNL     1      43.293   1.574  12.139  0.00  0.00    +0.000 HD
ENDBRANCH   6   9
BRANCH   8  14
ATOM     14  C   UNL     1      45.398   8.296  11.887  0.00  0.00    +0.000 C 
ATOM     15  F   UNL     1      44.166   8.590  11.367  0.00  0.00    +0.000 F 
ENDBRANCH   8  14
ENDBRANCH   1   3
BRANCH   1  16
ATOM     16  C   UNL     1      48.648   6.896  14.262  0.00  0.00    +0.000 C 
BRANCH  16  18
ATOM     17  C   UNL     1      50.697   7.857  15.382  0.00  0.00    +0.000 C 
ATOM     18  C   UNL     1      49.182   7.584  15.556  0.00  0.00    +0.000 C 
ATOM     19  C   UNL     1      48.505   8.969  15.692  0.00  0.00    +0.000 C 
BRANCH  18  20
ATOM     20  C   UNL     1      48.841   6.716  16.784  0.00  0.00    +0.000 A 
ATOM     21  C   UNL     1      48.657   7.304  18.050  0.00  0.00    +0.000 A 
ATOM     22  C   UNL     1      48.256   6.545  19.151  0.00  0.00    +0.000 A 
ATOM     23  C   UNL     1      48.036   5.177  19.017  0.00  0.00    +0.000 A 
ATOM     24  C   UNL     1      48.220   4.555  17.779  0.00  0.00    +0.000 A 
ATOM     25  C   UNL     1      48.619   5.332  16.678  0.00  0.00    +0.000 A 
BRANCH  24  26
ATOM     26  C   UNL     1      47.944   3.086  17.595  0.00  0.00    +0.000 C 
BRANCH  26  27
ATOM     27  N   UNL     1      46.519   2.810  17.713  0.00  0.00    +0.000 NA
ATOM     28  H   UNL     1      46.385   2.068  18.397  0.00  0.00    +0.000 HD
ATOM     29  H   UNL     1      46.176   2.448  16.825  0.00  0.00    +0.000 HD
ENDBRANCH  26  27
ENDBRANCH  24  26
ENDBRANCH  18  20
ENDBRANCH  16  18
ENDBRANCH   1  16
TORSDOF 8
ENDMDL
