MODEL 1
REMARK VINA RESULT:    -7.733      0.000      0.000
REMARK INTER + INTRA:         -11.552
REMARK INTER:                 -10.446
REMARK INTRA:                  -1.106
REMARK UNBOUND:                -1.106
REMARK  Name = 
REMARK  7 active torsions:
REMARK  status: ('A' for Active; 'I' for Inactive)
REMARK    1  A    between atoms: C_1  and  O_2
REMARK    2  A    between atoms: O_2  and  C_3
REMARK    3  A    between atoms: C_7  and  C_8
REMARK    4  A    between atoms: C_8  and  C_9
REMARK    5  A    between atoms: C_12  and  C_13
REMARK    6  A    between atoms: C_13  and  N_14
REMARK    7  A    between atoms: C_15  and  C_17
REMARK                            x       y       z     vdW  Elec       q    Type
REMARK                         _______ _______ _______ _____ _____    ______ ____
ROOT
ATOM      1  C   UNL     1      47.356   8.288  13.579  0.00  0.00    +0.000 C 
ENDROOT
BRANCH   1   5
ATOM      2  C   UNL     1      44.722   5.852  11.269  0.00  0.00    +0.000 A 
ATOM      3  C   UNL     1      45.811   5.261  11.915  0.00  0.00    +0.000 A 
ATOM      4  C   UNL     1      46.673   6.045  12.673  0.00  0.00    +0.000 A 
ATOM      5  C   UNL     1      46.447   7.416  12.750  0.00  0.00    +0.000 A 
ATOM      6  N   UNL     1      45.405   8.018  12.121  0.00  0.00    +0.000 NA
ATOM      7  C   UNL     1      44.570   7.226  11.406  0.00  0.00    +0.000 A 
BRANCH   2   8
ATOM      8  C   UNL     1      43.751   5.028  10.474  0.00  0.00    +0.000 C 
BRANCH   8  13
ATOM      9  C   UNL     1      45.815   3.412   7.696  0.00  0.00    +0.000 A 
ATOM     10  C   UNL     1      45.747   2.066   8.051  0.00  0.00    +0.000 A 
ATOM     11  C   UNL     1      44.971   1.670   9.144  0.00  0.00    +0.000 A 
ATOM     12  C   UNL     1      44.285   2.619   9.903  0.00  0.00    +0.000 A 
ATOM     13  C   UNL     1      44.383   3.980   9.588  0.00  0.00    +0.000 A 
ATOM     14  C   UNL     1      45.120   4.359   8.456  0.00  0.00    +0.000 A 
BRANCH   9  16
ATOM     15  C   UNL     1      46.898   3.029   5.616  0.00  0.00    +0.000 C 
ATOM     16  O   UNL     1      46.533   3.932   6.652  0.00  0.00    +0.000 OA
ENDBRANCH   9  16
ENDBRANCH   8  13
ENDBRANCH   2   8
ENDBRANCH   1   5
BRANCH   1  17
ATOM     17  N   UNL     1      47.789   7.636  14.793  0.00  0.00    +0.000 N 
ATOM     18  C   UNL     1      49.077   7.221  14.993  0.00  0.00    +0.000 C 
ATOM     19  O   UNL     1      49.952   7.371  14.146  0.00  0.00    +0.000 OA
ATOM     20  H   UNL     1      47.045   7.273  15.383  0.00  0.00    +0.000 HD
BRANCH  18  21
ATOM     21  C   UNL     1      49.383   6.662  16.317  0.00  0.00    +0.000 A 
ATOM     22  C   UNL     1      50.211   7.358  17.186  0.00  0.00    +0.000 A 
ATOM     23  S   UNL     1      50.425   6.588  18.694  0.00  0.00    +0.000 S 
ATOM     24  C   UNL     1      49.455   5.274  18.221  0.00  0.00    +0.000 A 
ATOM     25  N   UNL     1      49.245   4.220  19.057  0.00  0.00    +0.000 NA
ATOM     26  C   UNL     1      48.517   3.279  18.555  0.00  0.00    +0.000 A 
ATOM     27  N   UNL     1      47.969   3.299  17.300  0.00  0.00    +0.000 N 
ATOM     28  C   UNL     1      48.100   4.368  16.449  0.00  0.00    +0.000 A 
ATOM     29  O   UNL     1      47.504   4.403  15.377  0.00  0.00    +0.000 OA
ATOM     30  C   UNL     1      48.949   5.433  16.943  0.00  0.00    +0.000 A 
ATOM     31  H   UNL     1      47.382   2.547  16.976  0.00  0.00    +0.000 HD
ENDBRANCH  18  21
ENDBRANCH   1  17
TORSDOF 6
ENDMDL
MODEL 2
REMARK VINA RESULT:    -7.479      1.788      2.060
REMARK INTER + INTRA:         -11.208
REMARK INTER:                 -10.423
REMARK INTRA:                  -0.785
REMARK UNBOUND:                -1.106
REMARK  Name = 
REMARK  7 active torsions:
REMARK  status: ('A' for Active; 'I' for Inactive)
REMARK    1  A    between atoms: C_1  and  O_2
REMARK    2  A    between atoms: O_2  and  C_3
REMARK    3  A    between atoms: C_7  and  C_8
REMARK    4  A    between atoms: C_8  and  C_9
REMARK    5  A    between atoms: C_12  and  C_13
REMARK    6  A    between atoms: C_13  and  N_14
REMARK    7  A    between atoms: C_15  and  C_17
REMARK                            x       y       z     vdW  Elec       q    Type
REMARK                         _______ _______ _______ _____ _____    ______ ____
ROOT
ATOM      1  C   UNL     1      48.843   6.851  14.231  0.00  0.00    +0.000 C 
ENDROOT
BRANCH   1   5
ATOM      2  C   UNL     1      45.573   5.586  11.799  0.00  0.00    +0.000 A 
ATOM      3  C   UNL     1      45.947   4.811  12.899  0.00  0.00    +0.000 A 
ATOM      4  C   UNL     1      47.009   5.216  13.700  0.00  0.00    +0.000 A 
ATOM      5  C   UNL     1      47.698   6.379  13.371  0.00  0.00    +0.000 A 
ATOM      6  N   UNL     1      47.364   7.144  12.299  0.00  0.00    +0.000 NA
ATOM      7  C   UNL     1      46.313   6.735  11.549  0.00  0.00    +0.000 A 
BRANCH   2   8
ATOM      8  C   UNL     1      44.407   5.198  10.936  0.00  0.00    +0.000 C 
BRANCH   8  13
ATOM      9  C   UNL     1      45.797   3.523   7.798  0.00  0.00    +0.000 A 
ATOM     10  C   UNL     1      45.481   2.187   8.037  0.00  0.00    +0.000 A 
ATOM     11  C   UNL     1      44.751   1.834   9.175  0.00  0.00    +0.000 A 
ATOM     12  C   UNL     1      44.360   2.810  10.092  0.00  0.00    +0.000 A 
ATOM     13  C   UNL     1      44.712   4.151   9.891  0.00  0.00    +0.000 A 
ATOM     14  C   UNL     1      45.398   4.499   8.718  0.00  0.00    +0.000 A 
BRANCH   9  16
ATOM     15  C   UNL     1      46.894   3.052   5.743  0.00  0.00    +0.000 C 
ATOM     16  O   UNL     1      46.503   4.002   6.727  0.00  0.00    +0.000 OA
ENDBRANCH   9  16
ENDBRANCH   8  13
ENDBRANCH   2   8
ENDBRANCH   1   5
BRANCH   1  17
ATOM     17  N   UNL     1      48.468   6.992  15.620  0.00  0.00    +0.000 N 
ATOM     18  C   UNL     1      49.220   6.491  16.646  0.00  0.00    +0.000 C 
ATOM     19  O   UNL     1      50.267   5.879  16.452  0.00  0.00    +0.000 OA
ATOM     20  H   UNL     1      47.499   7.254  15.786  0.00  0.00    +0.000 HD
BRANCH  18  21
ATOM     21  C   UNL     1      48.755   6.798  18.005  0.00  0.00    +0.000 A 
ATOM     22  C   UNL     1      48.389   8.097  18.332  0.00  0.00    +0.000 A 
ATOM     23  S   UNL     1      47.832   8.269  19.935  0.00  0.00    +0.000 S 
ATOM     24  C   UNL     1      48.104   6.623  20.264  0.00  0.00    +0.000 A 
ATOM     25  N   UNL     1      47.856   6.104  21.497  0.00  0.00    +0.000 NA
ATOM     26  C   UNL     1      48.140   4.849  21.614  0.00  0.00    +0.000 A 
ATOM     27  N   UNL     1      48.637   4.063  20.608  0.00  0.00    +0.000 N 
ATOM     28  C   UNL     1      48.840   4.529  19.334  0.00  0.00    +0.000 A 
ATOM     29  O   UNL     1      49.177   3.773  18.428  0.00  0.00    +0.000 OA
ATOM     30  C   UNL     1      48.583   5.944  19.158  0.00  0.00    +0.000 A 
ATOM     31  H   UNL     1      48.808   3.081  20.752  0.00  0.00    +0.000 HD
ENDBRANCH  18  21
ENDBRANCH   1  17
TORSDOF 6
ENDMDL
MODEL 3
REMARK VINA RESULT:    -7.316      2.114      2.649
REMARK INTER + INTRA:         -10.988
REMARK INTER:                  -9.940
REMARK INTRA:                  -1.049
REMARK UNBOUND:                -1.106
REMARK  Name = 
REMARK  7 active torsions:
REMARK  status: ('A' for Active; 'I' for Inactive)
REMARK    1  A    between atoms: C_1  and  O_2
REMARK    2  A    between atoms: O_2  and  C_3
REMARK    3  A    between atoms: C_7  and  C_8
REMARK    4  A    between atoms: C_8  and  C_9
REMARK    5  A    between atoms: C_12  and  C_13
REMARK    6  A    between atoms: C_13  and  N_14
REMARK    7  A    between atoms: C_15  and  C_17
REMARK                            x       y       z     vdW  Elec       q    Type
REMARK                         _______ _______ _______ _____ _____    ______ ____
ROOT
ATOM      1  C   UNL     1      48.284   7.116  14.126  0.00  0.00    +0.000 C 
ENDROOT
BRANCH   1   5
ATOM      2  C   UNL     1      45.169   5.604  11.633  0.00  0.00    +0.000 A 
ATOM      3  C   UNL     1      45.616   6.914  11.450  0.00  0.00    +0.000 A 
ATOM      4  C   UNL     1      46.634   7.416  12.254  0.00  0.00    +0.000 A 
ATOM      5  C   UNL     1      47.169   6.604  13.250  0.00  0.00    +0.000 A 
ATOM      6  N   UNL     1      46.742   5.332  13.459  0.00  0.00    +0.000 NA
ATOM      7  C   UNL     1      45.764   4.864  12.647  0.00  0.00    +0.000 A 
BRANCH   2   8
ATOM      8  C   UNL     1      44.098   5.019  10.757  0.00  0.00    +0.000 C 
BRANCH   8  13
ATOM      9  C   UNL     1      45.856   3.462   7.744  0.00  0.00    +0.000 A 
ATOM     10  C   UNL     1      45.685   2.103   8.000  0.00  0.00    +0.000 A 
ATOM     11  C   UNL     1      44.936   1.688   9.104  0.00  0.00    +0.000 A 
ATOM     12  C   UNL     1      44.381   2.628   9.973  0.00  0.00    +0.000 A 
ATOM     13  C   UNL     1      44.585   3.996   9.757  0.00  0.00    +0.000 A 
ATOM     14  C   UNL     1      45.292   4.401   8.615  0.00  0.00    +0.000 A 
BRANCH   9  16
ATOM     15  C   UNL     1      46.936   3.112   5.658  0.00  0.00    +0.000 C 
ATOM     16  O   UNL     1      46.562   4.001   6.702  0.00  0.00    +0.000 OA
ENDBRANCH   9  16
ENDBRANCH   8  13
ENDBRANCH   2   8
ENDBRANCH   1   5
BRANCH   1  17
ATOM     17  N   UNL     1      48.097   6.768  15.516  0.00  0.00    +0.000 N 
ATOM     18  C   UNL     1      49.120   6.342  16.318  0.00  0.00    +0.000 C 
ATOM     19  O   UNL     1      50.270   6.221  15.904  0.00  0.00    +0.000 OA
ATOM     20  H   UNL     1      47.133   6.609  15.801  0.00  0.00    +0.000 HD
BRANCH  18  21
ATOM     21  C   UNL     1      48.789   6.118  17.732  0.00  0.00    +0.000 A 
ATOM     22  C   UNL     1      48.979   4.864  18.295  0.00  0.00    +0.000 A 
ATOM     23  S   UNL     1      48.587   4.790  19.954  0.00  0.00    +0.000 S 
ATOM     24  C   UNL     1      48.105   6.421  19.967  0.00  0.00    +0.000 A 
ATOM     25  N   UNL     1      47.621   7.000  21.100  0.00  0.00    +0.000 NA
ATOM     26  C   UNL     1      47.263   8.233  20.957  0.00  0.00    +0.000 A 
ATOM     27  N   UNL     1      47.354   8.943  19.789  0.00  0.00    +0.000 N 
ATOM     28  C   UNL     1      47.894   8.419  18.642  0.00  0.00    +0.000 A 
ATOM     29  O   UNL     1      48.066   9.116  17.646  0.00  0.00    +0.000 OA
ATOM     30  C   UNL     1      48.270   7.023  18.733  0.00  0.00    +0.000 A 
ATOM     31  H   UNL     1      47.086   9.913  19.749  0.00  0.00    +0.000 HD
ENDBRANCH  18  21
ENDBRANCH   1  17
TORSDOF 6
ENDMDL
MODEL 4
REMARK VINA RESULT:    -7.271      2.508      4.316
REMARK INTER + INTRA:         -10.927
REMARK INTER:                  -9.761
REMARK INTRA:                  -1.166
REMARK UNBOUND:                -1.106
REMARK  Name = 
REMARK  7 active torsions:
REMARK  status: ('A' for Active; 'I' for Inactive)
REMARK    1  A    between atoms: C_1  and  O_2
REMARK    2  A    between atoms: O_2  and  C_3
REMARK    3  A    between atoms: C_7  and  C_8
REMARK    4  A    between atoms: C_8  and  C_9
REMARK    5  A    between atoms: C_12  and  C_13
REMARK    6  A    between atoms: C_13  and  N_14
REMARK    7  A    between atoms: C_15  and  C_17
REMARK                            x       y       z     vdW  Elec       q    Type
REMARK                         _______ _______ _______ _____ _____    ______ ____
ROOT
ATOM      1  C   UNL     1      46.633   4.955  14.481  0.00  0.00    +0.000 C 
ENDROOT
BRANCH   1   5
ATOM      2  C   UNL     1      44.989   3.925  10.681  0.00  0.00    +0.000 A 
ATOM      3  C   UNL     1      45.457   5.223  10.894  0.00  0.00    +0.000 A 
ATOM      4  C   UNL     1      45.998   5.569  12.128  0.00  0.00    +0.000 A 
ATOM      5  C   UNL     1      46.037   4.614  13.139  0.00  0.00    +0.000 A 
ATOM      6  N   UNL     1      45.575   3.348  12.963  0.00  0.00    +0.000 NA
ATOM      7  C   UNL     1      45.072   3.035  11.745  0.00  0.00    +0.000 A 
BRANCH   2   8
ATOM      8  C   UNL     1      44.434   3.509   9.349  0.00  0.00    +0.000 C 
BRANCH   8  13
ATOM      9  C   UNL     1      46.906   1.285   7.469  0.00  0.00    +0.000 A 
ATOM     10  C   UNL     1      47.222   2.089   6.376  0.00  0.00    +0.000 A 
ATOM     11  C   UNL     1      46.697   3.381   6.283  0.00  0.00    +0.000 A 
ATOM     12  C   UNL     1      45.832   3.863   7.267  0.00  0.00    +0.000 A 
ATOM     13  C   UNL     1      45.466   3.049   8.346  0.00  0.00    +0.000 A 
ATOM     14  C   UNL     1      46.042   1.775   8.455  0.00  0.00    +0.000 A 
BRANCH   9  16
ATOM     15  C   UNL     1      46.440  -1.043   7.381  0.00  0.00    +0.000 C 
ATOM     16  O   UNL     1      47.350   0.007   7.682  0.00  0.00    +0.000 OA
ENDBRANCH   9  16
ENDBRANCH   8  13
ENDBRANCH   2   8
ENDBRANCH   1   5
BRANCH   1  17
ATOM     17  N   UNL     1      47.325   6.224  14.471  0.00  0.00    +0.000 N 
ATOM     18  C   UNL     1      48.461   6.455  15.197  0.00  0.00    +0.000 C 
ATOM     19  O   UNL     1      48.965   5.596  15.915  0.00  0.00    +0.000 OA
ATOM     20  H   UNL     1      46.792   7.008  14.104  0.00  0.00    +0.000 HD
BRANCH  18  21
ATOM     21  C   UNL     1      49.100   7.763  15.007  0.00  0.00    +0.000 A 
ATOM     22  C   UNL     1      49.284   8.606  16.095  0.00  0.00    +0.000 A 
ATOM     23  S   UNL     1      50.080  10.064  15.705  0.00  0.00    +0.000 S 
ATOM     24  C   UNL     1      50.165   9.641  14.060  0.00  0.00    +0.000 A 
ATOM     25  N   UNL     1      50.717  10.486  13.146  0.00  0.00    +0.000 NA
ATOM     26  C   UNL     1      50.684  10.050  11.930  0.00  0.00    +0.000 A 
ATOM     27  N   UNL     1      50.161   8.844  11.546  0.00  0.00    +0.000 N 
ATOM     28  C   UNL     1      49.655   7.935  12.440  0.00  0.00    +0.000 A 
ATOM     29  O   UNL     1      49.299   6.818  12.078  0.00  0.00    +0.000 OA
ATOM     30  C   UNL     1      49.623   8.392  13.815  0.00  0.00    +0.000 A 
ATOM     31  H   UNL     1      50.193   8.546  10.584  0.00  0.00    +0.000 HD
ENDBRANCH  18  21
ENDBRANCH   1  17
TORSDOF 6
ENDMDL
MODEL 5
REMARK VINA RESULT:    -7.131      2.476      3.057
REMARK INTER + INTRA:         -10.738
REMARK INTER:                  -9.982
REMARK INTRA:                  -0.756
REMARK UNBOUND:                -1.106
REMARK  Name = 
REMARK  7 active torsions:
REMARK  status: ('A' for Active; 'I' for Inactive)
REMARK    1  A    between atoms: C_1  and  O_2
REMARK    2  A    between atoms: O_2  and  C_3
REMARK    3  A    between atoms: C_7  and  C_8
REMARK    4  A    between atoms: C_8  and  C_9
REMARK    5  A    between atoms: C_12  and  C_13
REMARK    6  A    between atoms: C_13  and  N_14
REMARK    7  A    between atoms: C_15  and  C_17
REMARK                            x       y       z     vdW  Elec       q    Type
REMARK                         _______ _______ _______ _____ _____    ______ ____
ROOT
ATOM      1  C   UNL     1      47.683   4.534  15.704  0.00  0.00    +0.000 C 
ENDROOT
BRANCH   1   5
ATOM      2  C   UNL     1      45.611   5.283  12.049  0.00  0.00    +0.000 A 
ATOM      3  C   UNL     1      46.733   6.051  12.369  0.00  0.00    +0.000 A 
ATOM      4  C   UNL     1      47.417   5.813  13.556  0.00  0.00    +0.000 A 
ATOM      5  C   UNL     1      46.951   4.825  14.418  0.00  0.00    +0.000 A 
ATOM      6  N   UNL     1      45.855   4.073  14.138  0.00  0.00    +0.000 NA
ATOM      7  C   UNL     1      45.220   4.315  12.966  0.00  0.00    +0.000 A 
BRANCH   2   8
ATOM      8  C   UNL     1      44.872   5.489  10.758  0.00  0.00    +0.000 C 
BRANCH   8  13
ATOM      9  C   UNL     1      45.897   3.545   7.634  0.00  0.00    +0.000 A 
ATOM     10  C   UNL     1      45.496   2.253   7.971  0.00  0.00    +0.000 A 
ATOM     11  C   UNL     1      44.825   2.021   9.175  0.00  0.00    +0.000 A 
ATOM     12  C   UNL     1      44.579   3.073  10.059  0.00  0.00    +0.000 A 
ATOM     13  C   UNL     1      45.019   4.367   9.756  0.00  0.00    +0.000 A 
ATOM     14  C   UNL     1      45.642   4.596   8.521  0.00  0.00    +0.000 A 
BRANCH   9  16
ATOM     15  C   UNL     1      47.097   2.854   5.704  0.00  0.00    +0.000 C 
ATOM     16  O   UNL     1      46.558   3.908   6.491  0.00  0.00    +0.000 OA
ENDBRANCH   9  16
ENDBRANCH   8  13
ENDBRANCH   2   8
ENDBRANCH   1   5
BRANCH   1  17
ATOM     17  N   UNL     1      47.806   5.702  16.545  0.00  0.00    +0.000 N 
ATOM     18  C   UNL     1      48.998   6.337  16.762  0.00  0.00    +0.000 C 
ATOM     19  O   UNL     1      50.047   5.949  16.258  0.00  0.00    +0.000 OA
ATOM     20  H   UNL     1      47.020   5.877  17.167  0.00  0.00    +0.000 HD
BRANCH  18  21
ATOM     21  C   UNL     1      48.944   7.567  17.564  0.00  0.00    +0.000 A 
ATOM     22  C   UNL     1      49.461   8.749  17.052  0.00  0.00    +0.000 A 
ATOM     23  S   UNL     1      49.277  10.086  18.095  0.00  0.00    +0.000 S 
ATOM     24  C   UNL     1      48.541   9.124  19.288  0.00  0.00    +0.000 A 
ATOM     25  N   UNL     1      48.152   9.657  20.479  0.00  0.00    +0.000 NA
ATOM     26  C   UNL     1      47.638   8.805  21.302  0.00  0.00    +0.000 A 
ATOM     27  N   UNL     1      47.466   7.471  21.040  0.00  0.00    +0.000 N 
ATOM     28  C   UNL     1      47.782   6.905  19.831  0.00  0.00    +0.000 A 
ATOM     29  O   UNL     1      47.511   5.733  19.589  0.00  0.00    +0.000 OA
ATOM     30  C   UNL     1      48.407   7.807  18.885  0.00  0.00    +0.000 A 
ATOM     31  H   UNL     1      47.029   6.862  21.712  0.00  0.00    +0.000 HD
ENDBRANCH  18  21
ENDBRANCH   1  17
TORSDOF 6
ENDMDL
MODEL 6
REMARK VINA RESULT:    -7.004      3.016      4.864
REMARK INTER + INTRA:         -10.567
REMARK INTER:                  -9.754
REMARK INTRA:                  -0.812
REMARK UNBOUND:                -1.106
REMARK  Name = 
REMARK  7 active torsions:
REMARK  status: ('A' for Active; 'I' for Inactive)
REMARK    1  A    between atoms: C_1  and  O_2
REMARK    2  A    between atoms: O_2  and  C_3
REMARK    3  A    between atoms: C_7  and  C_8
REMARK    4  A    between atoms: C_8  and  C_9
REMARK    5  A    between atoms: C_12  and  C_13
REMARK    6  A    between atoms: C_13  and  N_14
REMARK    7  A    between atoms: C_15  and  C_17
REMARK                            x       y       z     vdW  Elec       q    Type
REMARK                         _______ _______ _______ _____ _____    ______ ____
ROOT
ATOM      1  C   UNL     1      47.847   3.487  17.538  0.00  0.00    +0.000 C 
ENDROOT
BRANCH   1   5
ATOM      2  C   UNL     1      47.262   5.502  13.822  0.00  0.00    +0.000 A 
ATOM      3  C   UNL     1      47.973   6.139  14.841  0.00  0.00    +0.000 A 
ATOM      4  C   UNL     1      48.173   5.490  16.055  0.00  0.00    +0.000 A 
ATOM      5  C   UNL     1      47.632   4.221  16.238  0.00  0.00    +0.000 A 
ATOM      6  N   UNL     1      46.925   3.584  15.270  0.00  0.00    +0.000 NA
ATOM      7  C   UNL     1      46.764   4.233  14.091  0.00  0.00    +0.000 A 
BRANCH   2   8
ATOM      8  C   UNL     1      47.061   6.159  12.487  0.00  0.00    +0.000 C 
BRANCH   8  13
ATOM      9  C   UNL     1      44.459   4.702  10.101  0.00  0.00    +0.000 A 
ATOM     10  C   UNL     1      43.272   5.116  10.703  0.00  0.00    +0.000 A 
ATOM     11  C   UNL     1      43.312   5.932  11.837  0.00  0.00    +0.000 A 
ATOM     12  C   UNL     1      44.535   6.311  12.391  0.00  0.00    +0.000 A 
ATOM     13  C   UNL     1      45.735   5.863  11.826  0.00  0.00    +0.000 A 
ATOM     14  C   UNL     1      45.683   5.090  10.657  0.00  0.00    +0.000 A 
BRANCH   9  16
ATOM     15  C   UNL     1      44.603   2.503   9.213  0.00  0.00    +0.000 C 
ATOM     16  O   UNL     1      44.561   3.907   8.991  0.00  0.00    +0.000 OA
ENDBRANCH   9  16
ENDBRANCH   8  13
ENDBRANCH   2   8
ENDBRANCH   1   5
BRANCH   1  17
ATOM     17  N   UNL     1      49.245   3.232  17.803  0.00  0.00    +0.000 N 
ATOM     18  C   UNL     1      49.982   2.327  17.089  0.00  0.00    +0.000 C 
ATOM     19  O   UNL     1      49.498   1.664  16.176  0.00  0.00    +0.000 OA
ATOM     20  H   UNL     1      49.587   3.565  18.701  0.00  0.00    +0.000 HD
BRANCH  18  21
ATOM     21  C   UNL     1      51.412   2.251  17.415  0.00  0.00    +0.000 A 
ATOM     22  C   UNL     1      52.023   1.012  17.551  0.00  0.00    +0.000 A 
ATOM     23  S   UNL     1      53.694   1.105  17.886  0.00  0.00    +0.000 S 
ATOM     24  C   UNL     1      53.649   2.805  17.907  0.00  0.00    +0.000 A 
ATOM     25  N   UNL     1      54.769   3.533  18.172  0.00  0.00    +0.000 NA
ATOM     26  C   UNL     1      54.582   4.811  18.188  0.00  0.00    +0.000 A 
ATOM     27  N   UNL     1      53.383   5.429  17.952  0.00  0.00    +0.000 N 
ATOM     28  C   UNL     1      52.246   4.739  17.617  0.00  0.00    +0.000 A 
ATOM     29  O   UNL     1      51.216   5.327  17.300  0.00  0.00    +0.000 OA
ATOM     30  C   UNL     1      52.386   3.297  17.631  0.00  0.00    +0.000 A 
ATOM     31  H   UNL     1      53.308   6.433  17.948  0.00  0.00    +0.000 HD
ENDBRANCH  18  21
ENDBRANCH   1  17
TORSDOF 6
ENDMDL
MODEL 7
REMARK VINA RESULT:    -6.909      3.911      9.445
REMARK INTER + INTRA:         -10.438
REMARK INTER:                  -9.301
REMARK INTRA:                  -1.137
REMARK UNBOUND:                -1.106
REMARK  Name = 
REMARK  7 active torsions:
REMARK  status: ('A' for Active; 'I' for Inactive)
REMARK    1  A    between atoms: C_1  and  O_2
REMARK    2  A    between atoms: O_2  and  C_3
REMARK    3  A    between atoms: C_7  and  C_8
REMARK    4  A    between atoms: C_8  and  C_9
REMARK    5  A    between atoms: C_12  and  C_13
REMARK    6  A    between atoms: C_13  and  N_14
REMARK    7  A    between atoms: C_15  and  C_17
REMARK                            x       y       z     vdW  Elec       q    Type
REMARK                         _______ _______ _______ _____ _____    ______ ____
ROOT
ATOM      1  C   UNL     1      47.740   4.051  16.150  0.00  0.00    +0.000 C 
ENDROOT
BRANCH   1   5
ATOM      2  C   UNL     1      48.189   6.613  19.533  0.00  0.00    +0.000 A 
ATOM      3  C   UNL     1      49.258   6.454  18.650  0.00  0.00    +0.000 A 
ATOM      4  C   UNL     1      49.121   5.624  17.542  0.00  0.00    +0.000 A 
ATOM      5  C   UNL     1      47.922   4.945  17.352  0.00  0.00    +0.000 A 
ATOM      6  N   UNL     1      46.871   5.070  18.203  0.00  0.00    +0.000 NA
ATOM      7  C   UNL     1      47.027   5.900  19.262  0.00  0.00    +0.000 A 
BRANCH   2   8
ATOM      8  C   UNL     1      48.290   7.531  20.718  0.00  0.00    +0.000 C 
BRANCH   8  13
ATOM      9  C   UNL     1      47.067  10.813  19.194  0.00  0.00    +0.000 A 
ATOM     10  C   UNL     1      46.118  11.214  20.133  0.00  0.00    +0.000 A 
ATOM     11  C   UNL     1      45.927  10.466  21.298  0.00  0.00    +0.000 A 
ATOM     12  C   UNL     1      46.661   9.299  21.514  0.00  0.00    +0.000 A 
ATOM     13  C   UNL     1      47.583   8.856  20.557  0.00  0.00    +0.000 A 
ATOM     14  C   UNL     1      47.804   9.645  19.419  0.00  0.00    +0.000 A 
BRANCH   9  16
ATOM     15  C   UNL     1      47.258  12.871  18.023  0.00  0.00    +0.000 C 
ATOM     16  O   UNL     1      47.352  11.452  18.018  0.00  0.00    +0.000 OA
ENDBRANCH   9  16
ENDBRANCH   8  13
ENDBRANCH   2   8
ENDBRANCH   1   5
BRANCH   1  17
ATOM     17  N   UNL     1      46.839   4.619  15.173  0.00  0.00    +0.000 N 
ATOM     18  C   UNL     1      47.262   5.442  14.166  0.00  0.00    +0.000 C 
ATOM     19  O   UNL     1      48.440   5.759  14.030  0.00  0.00    +0.000 OA
ATOM     20  H   UNL     1      45.852   4.586  15.417  0.00  0.00    +0.000 HD
BRANCH  18  21
ATOM     21  C   UNL     1      46.241   5.862  13.196  0.00  0.00    +0.000 A 
ATOM     22  C   UNL     1      46.068   7.210  12.916  0.00  0.00    +0.000 A 
ATOM     23  S   UNL     1      44.873   7.517  11.737  0.00  0.00    +0.000 S 
ATOM     24  C   UNL     1      44.512   5.862  11.594  0.00  0.00    +0.000 A 
ATOM     25  N   UNL     1      43.534   5.427  10.752  0.00  0.00    +0.000 NA
ATOM     26  C   UNL     1      43.345   4.150  10.769  0.00  0.00    +0.000 A 
ATOM     27  N   UNL     1      44.052   3.265  11.541  0.00  0.00    +0.000 N 
ATOM     28  C   UNL     1      45.088   3.652  12.353  0.00  0.00    +0.000 A 
ATOM     29  O   UNL     1      45.774   2.823  12.944  0.00  0.00    +0.000 OA
ATOM     30  C   UNL     1      45.312   5.082  12.409  0.00  0.00    +0.000 A 
ATOM     31  H   UNL     1      43.879   2.275  11.487  0.00  0.00    +0.000 HD
ENDBRANCH  18  21
ENDBRANCH   1  17
TORSDOF 6
ENDMDL
MODEL 8
REMARK VINA RESULT:    -6.895      2.458      3.530
REMARK INTER + INTRA:         -10.420
REMARK INTER:                  -9.356
REMARK INTRA:                  -1.063
REMARK UNBOUND:                -1.106
REMARK  Name = 
REMARK  7 active torsions:
REMARK  status: ('A' for Active; 'I' for Inactive)
REMARK    1  A    between atoms: C_1  and  O_2
REMARK    2  A    between atoms: O_2  and  C_3
REMARK    3  A    between atoms: C_7  and  C_8
REMARK    4  A    between atoms: C_8  and  C_9
REMARK    5  A    between atoms: C_12  and  C_13
REMARK    6  A    between atoms: C_13  and  N_14
REMARK    7  A    between atoms: C_15  and  C_17
REMARK                            x       y       z     vdW  Elec       q    Type
REMARK                         _______ _______ _______ _____ _____    ______ ____
ROOT
ATOM      1  C   UNL     1      49.236   7.808  16.081  0.00  0.00    +0.000 C 
ENDROOT
BRANCH   1   5
ATOM      2  C   UNL     1      47.074   6.772  12.550  0.00  0.00    +0.000 A 
ATOM      3  C   UNL     1      47.022   8.085  13.024  0.00  0.00    +0.000 A 
ATOM      4  C   UNL     1      47.726   8.434  14.172  0.00  0.00    +0.000 A 
ATOM      5  C   UNL     1      48.450   7.455  14.843  0.00  0.00    +0.000 A 
ATOM      6  N   UNL     1      48.506   6.167  14.413  0.00  0.00    +0.000 NA
ATOM      7  C   UNL     1      47.827   5.861  13.282  0.00  0.00    +0.000 A 
BRANCH   2   8
ATOM      8  C   UNL     1      46.357   6.371  11.294  0.00  0.00    +0.000 C 
BRANCH   8  13
ATOM      9  C   UNL     1      44.004   3.395  10.854  0.00  0.00    +0.000 A 
ATOM     10  C   UNL     1      43.192   3.519  11.980  0.00  0.00    +0.000 A 
ATOM     11  C   UNL     1      43.353   4.607  12.842  0.00  0.00    +0.000 A 
ATOM     12  C   UNL     1      44.345   5.558  12.599  0.00  0.00    +0.000 A 
ATOM     13  C   UNL     1      45.200   5.421  11.498  0.00  0.00    +0.000 A 
ATOM     14  C   UNL     1      44.993   4.355  10.611  0.00  0.00    +0.000 A 
BRANCH   9  16
ATOM     15  C   UNL     1      45.080   2.234   9.082  0.00  0.00    +0.000 C 
ATOM     16  O   UNL     1      43.950   2.384   9.932  0.00  0.00    +0.000 OA
ENDBRANCH   9  16
ENDBRANCH   8  13
ENDBRANCH   2   8
ENDBRANCH   1   5
BRANCH   1  17
ATOM     17  N   UNL     1      50.189   6.783  16.440  0.00  0.00    +0.000 N 
ATOM     18  C   UNL     1      50.462   6.446  17.738  0.00  0.00    +0.000 C 
ATOM     19  O   UNL     1      49.916   7.001  18.687  0.00  0.00    +0.000 OA
ATOM     20  H   UNL     1      50.830   6.504  15.701  0.00  0.00    +0.000 HD
BRANCH  18  21
ATOM     21  C   UNL     1      51.383   5.319  17.938  0.00  0.00    +0.000 A 
ATOM     22  C   UNL     1      52.648   5.547  18.463  0.00  0.00    +0.000 A 
ATOM     23  S   UNL     1      53.569   4.126  18.670  0.00  0.00    +0.000 S 
ATOM     24  C   UNL     1      52.328   3.162  18.023  0.00  0.00    +0.000 A 
ATOM     25  N   UNL     1      52.484   1.816  17.886  0.00  0.00    +0.000 NA
ATOM     26  C   UNL     1      51.474   1.215  17.350  0.00  0.00    +0.000 A 
ATOM     27  N   UNL     1      50.319   1.832  16.949  0.00  0.00    +0.000 N 
ATOM     28  C   UNL     1      50.093   3.173  17.128  0.00  0.00    +0.000 A 
ATOM     29  O   UNL     1      49.005   3.675  16.863  0.00  0.00    +0.000 OA
ATOM     30  C   UNL     1      51.213   3.907  17.682  0.00  0.00    +0.000 A 
ATOM     31  H   UNL     1      49.553   1.303  16.566  0.00  0.00    +0.000 HD
ENDBRANCH  18  21
ENDBRANCH   1  17
TORSDOF 6
ENDMDL
MODEL 9
REMARK VINA RESULT:    -6.793      1.777      2.615
REMARK INTER + INTRA:         -10.281
REMARK INTER:                  -8.932
REMARK INTRA:                  -1.349
REMARK UNBOUND:                -1.106
REMARK  Name = 
REMARK  7 active torsions:
REMARK  status: ('A' for Active; 'I' for Inactive)
REMARK    1  A    between atoms: C_1  and  O_2
REMARK    2  A    between atoms: O_2  and  C_3
REMARK    3  A    between atoms: C_7  and  C_8
REMARK    4  A    between atoms: C_8  and  C_9
REMARK    5  A    between atoms: C_12  and  C_13
REMARK    6  A    between atoms: C_13  and  N_14
REMARK    7  A    between atoms: C_15  and  C_17
REMARK                            x       y       z     vdW  Elec       q    Type
REMARK                         _______ _______ _______ _____ _____    ______ ____
ROOT
ATOM      1  C   UNL     1      49.173   8.758  14.445  0.00  0.00    +0.000 C 
ENDROOT
BRANCH   1   5
ATOM      2  C   UNL     1      46.048   7.398  11.878  0.00  0.00    +0.000 A 
ATOM      3  C   UNL     1      47.324   6.842  11.756  0.00  0.00    +0.000 A 
ATOM      4  C   UNL     1      48.349   7.276  12.591  0.00  0.00    +0.000 A 
ATOM      5  C   UNL     1      48.086   8.280  13.516  0.00  0.00    +0.000 A 
ATOM      6  N   UNL     1      46.858   8.848  13.646  0.00  0.00    +0.000 NA
ATOM      7  C   UNL     1      45.875   8.392  12.833  0.00  0.00    +0.000 A 
BRANCH   2   8
ATOM      8  C   UNL     1      44.911   6.926  11.018  0.00  0.00    +0.000 C 
BRANCH   8  13
ATOM      9  C   UNL     1      43.915   3.242  10.851  0.00  0.00    +0.000 A 
ATOM     10  C   UNL     1      43.489   3.013  12.158  0.00  0.00    +0.000 A 
ATOM     11  C   UNL     1      43.450   4.067  13.075  0.00  0.00    +0.000 A 
ATOM     12  C   UNL     1      43.864   5.345  12.698  0.00  0.00    +0.000 A 
ATOM     13  C   UNL     1      44.341   5.580  11.402  0.00  0.00    +0.000 A 
ATOM     14  C   UNL     1      44.324   4.527  10.477  0.00  0.00    +0.000 A 
BRANCH   9  16
ATOM     15  C   UNL     1      45.155   2.353   9.030  0.00  0.00    +0.000 C 
ATOM     16  O   UNL     1      44.001   2.303   9.858  0.00  0.00    +0.000 OA
ENDBRANCH   9  16
ENDBRANCH   8  13
ENDBRANCH   2   8
ENDBRANCH   1   5
BRANCH   1  17
ATOM     17  N   UNL     1      49.283   7.941  15.632  0.00  0.00    +0.000 N 
ATOM     18  C   UNL     1      48.643   8.245  16.802  0.00  0.00    +0.000 C 
ATOM     19  O   UNL     1      47.936   9.241  16.922  0.00  0.00    +0.000 OA
ATOM     20  H   UNL     1      50.053   7.277  15.636  0.00  0.00    +0.000 HD
BRANCH  18  21
ATOM     21  C   UNL     1      48.777   7.266  17.890  0.00  0.00    +0.000 A 
ATOM     22  C   UNL     1      49.071   7.700  19.176  0.00  0.00    +0.000 A 
ATOM     23  S   UNL     1      49.147   6.439  20.323  0.00  0.00    +0.000 S 
ATOM     24  C   UNL     1      48.835   5.265  19.133  0.00  0.00    +0.000 A 
ATOM     25  N   UNL     1      48.793   3.941  19.448  0.00  0.00    +0.000 NA
ATOM     26  C   UNL     1      48.580   3.160  18.442  0.00  0.00    +0.000 A 
ATOM     27  N   UNL     1      48.394   3.582  17.151  0.00  0.00    +0.000 N 
ATOM     28  C   UNL     1      48.363   4.907  16.800  0.00  0.00    +0.000 A 
ATOM     29  O   UNL     1      48.081   5.255  15.658  0.00  0.00    +0.000 OA
ATOM     30  C   UNL     1      48.644   5.827  17.884  0.00  0.00    +0.000 A 
ATOM     31  H   UNL     1      48.200   2.924  16.413  0.00  0.00    +0.000 HD
ENDBRANCH  18  21
ENDBRANCH   1  17
TORSDOF 6
ENDMDL
